SandboxData_C2S7_20210305/C2S7N00617/scenario_009/case.raw
0,100.0,33,0,0,60.0
GRID OPTIMIZATION COMPETITION CHALLENGE 2
INPUT DATA FILES ARE RAW JSON CON
1,'ATHENS 1 1',115.0,1,1,1,1,1.01244712,4.572036,1.1,0.9,1.1,0.9
2,'ATHENS 2 1',115.0,1,1,1,1,1.00995338,4.172403,1.1,0.9,1.1,0.9
3,'ATHENS 3 1',115.0,1,1,1,1,1.0091387,4.107186,1.1,0.9,1.1,0.9
4,'FRANKSTON 1',115.0,1,1,1,1,1.0169692,10.782409,1.1,0.9,1.1,0.9
5,'FRANKSTON 2',115.0,1,1,1,1,1.01688814,10.774803,1.1,0.9,1.1,0.9
6,'PALESTINE ~1',115.0,1,1,1,1,1.001827,10.133685,1.1,0.9,1.1,0.9
7,'PALESTINE ~2',115.0,1,1,1,1,1.0077858,11.032818,1.1,0.9,1.1,0.9
8,'PALESTINE ~3',230.0,1,1,1,1,1.03634274,16.716487,1.1,0.9,1.1,0.9
9,'PALESTINE ~4',115.0,1,1,1,1,1.02124631,13.187988,1.1,0.9,1.1,0.9
10,'PALESTINE ~5',115.0,1,1,1,1,1.00938833,7.162811,1.1,0.9,1.1,0.9
11,'PALESTINE ~6',115.0,1,1,1,1,1.01652956,10.371394,1.1,0.9,1.1,0.9
12,'PALESTINE ~7',230.0,1,1,1,1,1.0364486,16.250811,1.1,0.9,1.1,0.9
13,'PALESTINE ~8',230.0,1,1,1,1,1.03611887,16.11605,1.1,0.9,1.1,0.9
14,'PALESTINE ~9',115.0,1,1,1,1,1.02134514,11.696581,1.1,0.9,1.1,0.9
15,'BUFFALO 1',115.0,1,1,1,1,1.01337779,5.543541,1.1,0.9,1.1,0.9
16,'CENTERVILL~1',115.0,1,1,1,1,1.01871419,4.468767,1.1,0.9,1.1,0.9
17,'CROCKETT 1 1',115.0,1,1,1,1,1.01030028,6.336304,1.1,0.9,1.1,0.9
18,'CROCKETT 1 2',115.0,1,1,1,1,1.01035285,6.343176,1.1,0.9,1.1,0.9
19,'CROCKETT 2 1',230.0,1,1,1,1,1.0368216,12.496581,1.1,0.9,1.1,0.9
20,'CROCKETT 2 2',230.0,1,1,1,1,1.03643215,12.376775,1.1,0.9,1.1,0.9
21,'CROCKETT 2 3',115.0,1,1,1,1,1.02829444,9.226149,1.1,0.9,1.1,0.9
22,'CROCKETT 2 4',230.0,1,1,1,1,1.03756654,12.630502,1.1,0.9,1.1,0.9
23,'ELKHART 1',115.0,1,1,1,1,0.99922049,8.705485,1.1,0.9,1.1,0.9
24,'FAIRFIELD ~1',115.0,1,1,1,1,1.03351843,14.263698,1.1,0.9,1.1,0.9
25,'FAIRFIELD ~2',115.0,1,1,1,1,1.03392279,14.784943,1.1,0.9,1.1,0.9
26,'GRAPELAND 1',115.0,1,1,1,1,1.00022995,7.633378,1.1,0.9,1.1,0.9
27,'JEWETT 1',115.0,1,1,1,1,1.02541661,8.637861,1.1,0.9,1.1,0.9
28,'KENNARD 1',115.0,1,1,1,1,1.01860344,7.615475,1.1,0.9,1.1,0.9
29,'KENNARD 2',115.0,1,1,1,1,1.01863229,7.619442,1.1,0.9,1.1,0.9
30,'LOVELADY 1 1',115.0,1,1,1,1,1.00667882,4.690636,1.1,0.9,1.1,0.9
31,'LOVELADY 2 1',115.0,1,1,1,1,1.00798786,3.751278,1.1,0.9,1.1,0.9
32,'OAKWOOD 1',115.0,1,1,1,1,1.0092684,4.81247,1.1,0.9,1.1,0.9
33,'STREETMAN 1',115.0,1,1,1,1,1.02671766,13.143199,1.1,0.9,1.1,0.9
34,'TEAGUE 1',115.0,1,1,1,1,1.02789545,13.163752,1.1,0.9,1.1,0.9
35,'TENNESSEE ~1',115.0,1,1,1,1,1.00447929,3.832246,1.1,0.9,1.1,0.9
36,'TENNESSEE ~2',115.0,1,1,1,1,1.00538886,4.166844,1.1,0.9,1.1,0.9
37,'GLEN ROSE 1',230.0,1,1,1,1,1.02483439,4.272244,1.1,0.9,1.1,0.9
38,'GLEN ROSE 2',115.0,1,1,1,1,1.02364254,2.636141,1.1,0.9,1.1,0.9
39,'RIO VISTA 1',115.0,1,1,1,1,1.00943196,6.388846,1.1,0.9,1.1,0.9
40,'COMANCHE 1 1',115.0,1,1,1,1,0.99888557,-5.040779,1.1,0.9,1.1,0.9
41,'COMANCHE 1 2',115.0,1,1,1,1,0.9987911,-5.048955,1.1,0.9,1.1,0.9
42,'COMANCHE 2 1',115.0,1,1,1,1,1.00026512,-5.801695,1.1,0.9,1.1,0.9
43,'COMANCHE 2 2',115.0,1,1,1,1,1.00032473,-5.796528,1.1,0.9,1.1,0.9
44,'CROSS PLAI~1',115.0,1,1,1,1,0.98865491,-12.597303,1.1,0.9,1.1,0.9
45,'DE LEON 1',115.0,1,1,1,1,1.00288093,-3.440602,1.1,0.9,1.1,0.9
46,'DUBLIN 1 1',115.0,1,1,1,1,1.01402462,-0.215437,1.1,0.9,1.1,0.9
47,'DUBLIN 2 1',230.0,1,1,1,1,1.0156517,1.290691,1.1,0.9,1.1,0.9
48,'DUBLIN 2 2',115.0,1,1,1,1,1.01294601,-0.585167,1.1,0.9,1.1,0.9
49,'HICO 1',115.0,1,1,1,1,1.00806105,-3.279433,1.1,0.9,1.1,0.9
50,'HICO 2',115.0,1,1,1,1,1.0079782,-3.286585,1.1,0.9,1.1,0.9
51,'RISING STA~1',115.0,1,1,1,1,0.99556828,-10.949114,1.1,0.9,1.1,0.9
52,'TEMPLE 1 1',115.0,1,1,1,1,1.02703679,-0.759841,1.1,0.9,1.1,0.9
53,'TEMPLE 1 2',115.0,1,1,1,1,1.02692163,-0.776301,1.1,0.9,1.1,0.9
54,'TEMPLE 2 1',115.0,1,1,1,1,1.02997386,-0.437437,1.1,0.9,1.1,0.9
55,'TEMPLE 3 1',115.0,1,1,1,1,1.02736437,-0.757282,1.1,0.9,1.1,0.9
56,'TEMPLE 3 2',115.0,1,1,1,1,1.02730477,-0.765094,1.1,0.9,1.1,0.9
57,'TEMPLE 4 1',115.0,1,1,1,1,0.98985183,-7.415339,1.1,0.9,1.1,0.9
58,'TEMPLE 5 1',115.0,1,1,1,1,0.98855817,-6.734282,1.1,0.9,1.1,0.9
59,'TEMPLE 6 1',115.0,1,1,1,1,1.02845418,-1.560785,1.1,0.9,1.1,0.9
60,'TEMPLE 6 2',115.0,1,1,1,1,1.02836919,-1.572495,1.1,0.9,1.1,0.9
61,'TEMPLE 7 1',115.0,1,1,1,1,0.99359941,-7.940134,1.1,0.9,1.1,0.9
62,'BELTON 1 1',115.0,1,1,1,1,1.00201285,-9.070981,1.1,0.9,1.1,0.9
63,'BELTON 2 1',230.0,1,1,1,1,1.03211749,-0.272535,1.1,0.9,1.1,0.9
64,'BELTON 2 2',115.0,1,1,1,1,1.01186156,-6.832607,1.1,0.9,1.1,0.9
65,'BELTON 3 1',230.0,1,1,1,1,1.03542078,1.819206,1.1,0.9,1.1,0.9
66,'BELTON 3 2',115.0,1,1,1,1,1.00109208,-8.074353,1.1,0.9,1.1,0.9
67,'BELTON 4 1',115.0,1,1,1,1,1.00032258,-8.807541,1.1,0.9,1.1,0.9
68,'CAMERON 1',115.0,1,1,1,1,1.02024496,1.198658,1.1,0.9,1.1,0.9
69,'GATESVILLE~1',115.0,1,1,1,1,1.00975621,-1.589316,1.1,0.9,1.1,0.9
70,'GATESVILLE~2',115.0,1,1,1,1,1.00352871,-1.378907,1.1,0.9,1.1,0.9
71,'GATESVILLE~3',230.0,1,1,1,1,1.02821386,-0.920122,1.1,0.9,1.1,0.9
72,'GATESVILLE~4',115.0,1,1,1,1,1.01692522,-1.544243,1.1,0.9,1.1,0.9
73,'GRANGER 1',115.0,1,1,1,1,0.99154735,-7.546451,1.1,0.9,1.1,0.9
74,'JARRELL 1',115.0,1,1,1,1,0.99933589,-6.147898,1.1,0.9,1.1,0.9
75,'KEMPNER 1 1',115.0,1,1,1,1,1.00797009,-9.962862,1.1,0.9,1.1,0.9
76,'KEMPNER 2 1',115.0,1,1,1,1,1.01077056,-9.103637,1.1,0.9,1.1,0.9
77,'KILLEEN 1 1',115.0,1,1,1,1,1.00820136,-11.595231,1.1,0.9,1.1,0.9
78,'KILLEEN 2 1',115.0,1,1,1,1,1.02079034,-12.682617,1.1,0.9,1.1,0.9
79,'KILLEEN 3 1',115.0,1,1,1,1,1.03369462,-13.617941,1.1,0.9,1.1,0.9
80,'KILLEEN 4 1',115.0,1,1,1,1,1.00558639,-11.440461,1.1,0.9,1.1,0.9
81,'KILLEEN 5 1',115.0,1,1,1,1,1.0035758,-11.504788,1.1,0.9,1.1,0.9
82,'KILLEEN 6 1',115.0,1,1,1,1,1.03028035,-13.344323,1.1,0.9,1.1,0.9
83,'KILLEEN 7 1',230.0,1,1,1,1,1.03785253,-0.33218,1.1,0.9,1.1,0.9
84,'KILLEEN 7 2',230.0,1,1,1,1,1.03684127,-0.463449,1.1,0.9,1.1,0.9
85,'KILLEEN 7 3',115.0,1,1,1,1,1.03197014,-1.243661,1.1,0.9,1.1,0.9
86,'KILLEEN 7 ~1',115.0,1,1,1,1,1.03196883,-1.243661,1.1,0.9,1.1,0.9
87,'KILLEEN 8 1',115.0,1,1,1,1,1.02222979,-1.986099,1.1,0.9,1.1,0.9
88,'FORT HOOD ~1',115.0,1,1,1,1,1.01559889,-12.056402,1.1,0.9,1.1,0.9
89,'FORT HOOD ~2',115.0,1,1,1,1,1.02577078,-13.155569,1.1,0.9,1.1,0.9
90,'FORT HOOD ~3',115.0,1,1,1,1,1.02572298,-13.162849,1.1,0.9,1.1,0.9
91,'FORT HOOD ~4',115.0,1,1,1,1,1.03427362,-13.685992,1.1,0.9,1.1,0.9
92,'FORT HOOD ~5',115.0,1,1,1,1,1.03383029,-13.650381,1.1,0.9,1.1,0.9
93,'HARKER HEI~1',115.0,1,1,1,1,1.00165367,-10.055434,1.1,0.9,1.1,0.9
94,'KILLEEN 9 1',115.0,1,1,1,1,1.00355494,-11.613441,1.1,0.9,1.1,0.9
95,'KILLEEN 10 1',115.0,1,1,1,1,1.01299906,-11.586019,1.1,0.9,1.1,0.9
96,'KILLEEN 11 1',115.0,1,1,1,1,1.00653005,-11.419131,1.1,0.9,1.1,0.9
97,'KILLEEN 11 2',115.0,1,1,1,1,1.00672102,-11.403084,1.1,0.9,1.1,0.9
98,'KILLEEN 12 1',230.0,1,1,1,1,1.02943659,-3.18594,1.1,0.9,1.1,0.9
99,'KILLEEN 12~1',230.0,1,1,1,1,1.02943659,-3.18594,1.1,0.9,1.1,0.9
100,'KILLEEN 12 2',115.0,1,1,1,1,1.01568592,-10.951536,1.1,0.9,1.1,0.9
101,'KILLEEN 12 3',230.0,1,1,1,1,1.0293225,-3.203141,1.1,0.9,1.1,0.9
102,'LAMPASAS 1 1',115.0,1,1,1,1,1.02034366,-6.707714,1.1,0.9,1.1,0.9
103,'LAMPASAS 2 1',230.0,1,1,1,1,1.03440058,-3.378917,1.1,0.9,1.1,0.9
104,'LAMPASAS 2 2',115.0,1,1,1,1,1.02529502,-5.771017,1.1,0.9,1.1,0.9
105,'MOODY 1',115.0,1,1,1,1,0.98952138,-4.247684,1.1,0.9,1.1,0.9
106,'MOODY 2',115.0,1,1,1,1,0.98954898,-4.241499,1.1,0.9,1.1,0.9
107,'ROCKDALE 1 1',115.0,1,1,1,1,1.03444386,1.906882,1.1,0.9,1.1,0.9
108,'ROCKDALE 2 1',115.0,1,1,1,1,1.03590059,1.705309,1.1,0.9,1.1,0.9
109,'ROCKDALE 3 1',115.0,1,1,1,1,1.03434753,1.72698,1.1,0.9,1.1,0.9
110,'ROGERS 1',115.0,1,1,1,1,1.01878023,-1.368693,1.1,0.9,1.1,0.9
111,'ROSEBUD 1',115.0,1,1,1,1,1.02617919,0.961372,1.1,0.9,1.1,0.9
112,'TAYLOR 1 1',115.0,1,1,1,1,0.9920513,-9.923245,1.1,0.9,1.1,0.9
113,'TAYLOR 2 1',115.0,1,1,1,1,1.00123441,-10.809308,1.1,0.9,1.1,0.9
114,'TAYLOR 3 1',115.0,1,1,1,1,0.99370772,-10.262795,1.1,0.9,1.1,0.9
115,'TAYLOR 3 2',115.0,1,1,1,1,0.99380445,-10.253192,1.1,0.9,1.1,0.9
116,'THORNDALE ~1',115.0,1,1,1,1,0.99280626,-10.227458,1.1,0.9,1.1,0.9
117,'THORNDALE ~2',115.0,1,1,1,1,1.03847098,2.328512,1.1,0.9,1.1,0.9
118,'TROY 1',115.0,1,1,1,1,0.99717742,-0.610453,1.1,0.9,1.1,0.9
119,'CLIFTON 1 1',115.0,1,1,1,1,0.99744999,-0.362085,1.1,0.9,1.1,0.9
120,'CLIFTON 2 1',115.0,1,1,1,1,0.99754685,0.035236,1.1,0.9,1.1,0.9
121,'CRAWFORD 1',115.0,1,1,1,1,1.00466919,2.462799,1.1,0.9,1.1,0.9
122,'HILLSBORO ~1',230.0,1,1,1,1,1.03112841,7.583448,1.1,0.9,1.1,0.9
123,'HILLSBORO ~2',115.0,1,1,1,1,1.02240837,6.968007,1.1,0.9,1.1,0.9
124,'HILLSBORO ~3',230.0,1,1,1,1,1.03100085,7.576932,1.1,0.9,1.1,0.9
125,'HILLSBORO ~4',115.0,1,1,1,1,0.99605525,6.55741,1.1,0.9,1.1,0.9
126,'HUBBARD 1',115.0,1,1,1,1,1.02147508,5.344144,1.1,0.9,1.1,0.9
127,'LORENA 1',115.0,1,1,1,1,1.004601,0.789413,1.1,0.9,1.1,0.9
128,'LOTT 1',115.0,1,1,1,1,1.00159955,0.207716,1.1,0.9,1.1,0.9
129,'LOTT 2',115.0,1,1,1,1,1.00155711,0.201698,1.1,0.9,1.1,0.9
130,'MARLIN 1 1',115.0,1,1,1,1,1.02175701,3.115559,1.1,0.9,1.1,0.9
131,'MARLIN 2 1',115.0,1,1,1,1,1.01277411,2.711477,1.1,0.9,1.1,0.9
132,'MART 1',115.0,1,1,1,1,1.03219616,6.982429,1.1,0.9,1.1,0.9
133,'MERIDIAN 1',115.0,1,1,1,1,0.99580008,-0.471395,1.1,0.9,1.1,0.9
134,'MEXIA 1',230.0,1,1,1,1,1.04266524,11.941103,1.1,0.9,1.1,0.9
135,'MEXIA 2',115.0,1,1,1,1,1.03783906,8.652932,1.1,0.9,1.1,0.9
136,'MEXIA 3',230.0,1,1,1,1,1.04249728,11.906335,1.1,0.9,1.1,0.9
137,'WEST 1',115.0,1,1,1,1,1.02112925,5.210357,1.1,0.9,1.1,0.9
138,'WHITNEY 1 1',115.0,1,1,1,1,1.03340316,7.514714,1.1,0.9,1.1,0.9
139,'WHITNEY 2 1',115.0,1,1,1,1,1.02973044,7.125164,1.1,0.9,1.1,0.9
140,'WHITNEY 3 1',115.0,1,1,1,1,0.9987089,6.217578,1.1,0.9,1.1,0.9
141,'WACO 1 1',230.0,1,1,1,1,1.04180431,8.746419,1.1,0.9,1.1,0.9
142,'WACO 1 2',230.0,1,1,1,1,1.0408076,8.600187,1.1,0.9,1.1,0.9
143,'WACO 1 3',115.0,1,1,1,1,1.02413189,5.198855,1.1,0.9,1.1,0.9
144,'WACO 1 4',230.0,1,1,1,1,1.04331541,8.894503,1.1,0.9,1.1,0.9
145,'WACO 2 1',115.0,1,1,1,1,1.01927006,5.378866,1.1,0.9,1.1,0.9
146,'WACO 2 2',115.0,1,1,1,1,1.01918805,5.364537,1.1,0.9,1.1,0.9
147,'WACO 3 1',115.0,1,1,1,1,1.02326441,5.838054,1.1,0.9,1.1,0.9
148,'WACO 4 1',115.0,1,1,1,1,1.01274025,4.186413,1.1,0.9,1.1,0.9
149,'WACO 5 1',230.0,1,1,1,1,1.0389291,7.437642,1.1,0.9,1.1,0.9
150,'WACO 5 2',115.0,1,1,1,1,1.0187608,3.270622,1.1,0.9,1.1,0.9
151,'WACO 6 1',115.0,1,1,1,1,1.01921046,4.974755,1.1,0.9,1.1,0.9
152,'WACO 7 1',115.0,1,1,1,1,1.01375782,2.480492,1.1,0.9,1.1,0.9
153,'WACO 8 1',230.0,1,1,1,1,1.03437448,8.158424,1.1,0.9,1.1,0.9
154,'WACO 8 2',115.0,1,1,1,1,1.01917088,4.827349,1.1,0.9,1.1,0.9
155,'WACO 9 1',115.0,1,1,1,1,1.01672363,4.564148,1.1,0.9,1.1,0.9
156,'WACO 9 2',115.0,1,1,1,1,1.01661062,4.547445,1.1,0.9,1.1,0.9
157,'WACO 10 1',115.0,1,1,1,1,1.01488733,4.515008,1.1,0.9,1.1,0.9
158,'WACO 11 1',115.0,1,1,1,1,1.01099885,2.02817,1.1,0.9,1.1,0.9
159,'WACO 12 1',115.0,1,1,1,1,1.01289463,4.071796,1.1,0.9,1.1,0.9
160,'WACO 13 1',115.0,1,1,1,1,1.00963533,3.706211,1.1,0.9,1.1,0.9
161,'WOODWAY 1 1',115.0,1,1,1,1,1.00867689,3.659619,1.1,0.9,1.1,0.9
162,'WOODWAY 2 1',115.0,1,1,1,1,1.0084548,3.624828,1.1,0.9,1.1,0.9
163,'WOODWAY 2 2',115.0,1,1,1,1,1.00837004,3.615869,1.1,0.9,1.1,0.9
164,'BROWNWOOD ~1',115.0,1,1,1,1,1.01526392,-7.943736,1.1,0.9,1.1,0.9
165,'BROWNWOOD ~2',230.0,1,1,1,1,1.0437429,-4.208335,1.1,0.9,1.1,0.9
166,'BROWNWOOD ~3',230.0,1,1,1,1,1.04323602,-4.241826,1.1,0.9,1.1,0.9
167,'BROWNWOOD ~4',115.0,1,1,1,1,1.0217092,-7.412632,1.1,0.9,1.1,0.9
168,'BROWNWOOD ~5',230.0,1,1,1,1,1.04329348,-4.217743,1.1,0.9,1.1,0.9
169,'BROWNWOOD ~6',115.0,1,1,1,1,1.0057714,-9.251217,1.1,0.9,1.1,0.9
170,'BROWNWOOD ~7',115.0,1,1,1,1,1.00593662,-9.237874,1.1,0.9,1.1,0.9
171,'BROWNWOOD ~8',115.0,1,1,1,1,1.01462221,-7.889529,1.1,0.9,1.1,0.9
172,'EARLY 1',115.0,1,1,1,1,1.01132476,-7.758945,1.1,0.9,1.1,0.9
173,'BRADY 1 1',115.0,1,1,1,1,0.97593439,-17.954593,1.1,0.9,1.1,0.9
174,'BRADY 2 1',115.0,1,1,1,1,0.96999604,-17.653046,1.1,0.9,1.1,0.9
175,'BRADY 2 2',115.0,1,1,1,1,0.97371614,-17.124896,1.1,0.9,1.1,0.9
176,'BRADY 2 3',115.0,1,1,1,1,0.96992385,-17.66046,1.1,0.9,1.1,0.9
177,'BRADY 2 3 ~2',230.0,1,1,1,1,0.96995091,-17.656898,1.1,0.9,1.1,0.9
178,'COLEMAN 1 1',115.0,1,1,1,1,0.98168677,-14.428587,1.1,0.9,1.1,0.9
179,'COLEMAN 1 2',115.0,1,1,1,1,0.98162639,-14.436114,1.1,0.9,1.1,0.9
180,'COLEMAN 2 1',115.0,1,1,1,1,0.98304462,-14.058852,1.1,0.9,1.1,0.9
181,'MASON 1',115.0,1,1,1,1,0.98143786,-18.862264,1.1,0.9,1.1,0.9
182,'ROCHELLE 1',115.0,1,1,1,1,0.9828676,-14.426789,1.1,0.9,1.1,0.9
183,'SAN SABA 1',115.0,1,1,1,1,0.9929074,-11.866243,1.1,0.9,1.1,0.9
184,'SANTA ANNA 1',115.0,1,1,1,1,0.98208964,-14.620993,1.1,0.9,1.1,0.9
185,'CONROE 1 1',115.0,1,1,1,1,1.01688087,-5.310427,1.1,0.9,1.1,0.9
186,'CONROE 2 1',230.0,1,1,1,1,1.01788604,-1.128549,1.1,0.9,1.1,0.9
187,'CONROE 2 2',115.0,1,1,1,1,1.01370955,-3.310453,1.1,0.9,1.1,0.9
188,'CONROE 2 3',230.0,1,1,1,1,1.01823974,-1.069781,1.1,0.9,1.1,0.9
189,'CONROE 3 1',115.0,1,1,1,1,1.01363051,-2.764048,1.1,0.9,1.1,0.9
190,'CONROE 4 1',115.0,1,1,1,1,1.01383317,-3.098499,1.1,0.9,1.1,0.9
191,'CONROE 5 1',115.0,1,1,1,1,1.01046276,-3.705512,1.1,0.9,1.1,0.9
192,'CONROE 6 1',115.0,1,1,1,1,1.01270604,-3.006721,1.1,0.9,1.1,0.9
193,'CONROE 7 1',115.0,1,1,1,1,1.0158304,-2.757289,1.1,0.9,1.1,0.9
194,'CONROE 8 1',115.0,1,1,1,1,1.03122318,-6.208285,1.1,0.9,1.1,0.9
195,'CONROE 9 1',115.0,1,1,1,1,1.01017475,-3.571569,1.1,0.9,1.1,0.9
196,'CONROE 9 1~1',115.0,1,1,1,1,1.01018441,-3.562016,1.1,0.9,1.1,0.9
197,'MONTGOMERY~1',115.0,1,1,1,1,1.01506484,-2.441122,1.1,0.9,1.1,0.9
198,'WILLIS 1 1',115.0,1,1,1,1,1.01511729,-2.210189,1.1,0.9,1.1,0.9
199,'WILLIS 2 1',115.0,1,1,1,1,1.02095532,-0.201055,1.1,0.9,1.1,0.9
200,'WILLIS 3 1',115.0,1,1,1,1,1.014027,-2.467446,1.1,0.9,1.1,0.9
...
0 / END OF BUS DATA BEGIN LOAD DATA
1,'1',1,1,1,14.88,3.825,0.0,0.0,0.0,0.0,1,1,0
2,'1',1,1,1,10.104,0.395,0.0,0.0,0.0,0.0,1,1,0
3,'1',1,1,1,26.564,2.075,0.0,0.0,0.0,0.0,1,1,0
5,'1',1,1,1,13.657,5.103,0.0,0.0,0.0,0.0,1,1,0
6,'1',1,1,1,14.62,7.347,0.0,0.0,0.0,0.0,1,1,0
7,'1',1,1,1,16.26,7.284,0.0,0.0,0.0,0.0,1,1,0
9,'1',1,1,1,29.12,4.831,0.0,0.0,0.0,0.0,1,1,0
10,'1',1,1,1,19.32,2.265,0.0,0.0,0.0,0.0,1,1,0
11,'1',1,1,1,16.45,5.807,0.0,0.0,0.0,0.0,1,1,0
14,'1',1,1,1,38.64,15.93,0.0,0.0,0.0,0.0,1,1,0
15,'1',1,1,1,14.569,2.869,0.0,0.0,0.0,0.0,1,1,0
16,'1',1,1,1,7.36,2.353,0.0,0.0,0.0,0.0,1,1,0
17,'1',1,1,1,11.12,2.015,0.0,0.0,0.0,0.0,1,1,0
21,'1',1,1,1,21.927,0.834,0.0,0.0,0.0,0.0,1,1,0
23,'1',1,1,1,9.757,2.399,0.0,0.0,0.0,0.0,1,1,0
24,'1',1,1,1,10.04,2.243,0.0,0.0,0.0,0.0,1,1,0
25,'1',1,1,1,16.48,1.44,0.0,0.0,0.0,0.0,1,1,0
26,'1',1,1,1,13.24,1.799,0.0,0.0,0.0,0.0,1,1,0
27,'1',1,1,1,12.337,2.159,0.0,0.0,0.0,0.0,1,1,0
28,'1',1,1,1,7.24,1.094,0.0,0.0,0.0,0.0,1,1,0
30,'1',1,1,1,11.61,1.635,0.0,0.0,0.0,0.0,1,1,0
31,'1',1,1,1,3.57,0.753,0.0,0.0,0.0,0.0,1,1,0
32,'1',1,1,1,7.33,2.172,0.0,0.0,0.0,0.0,1,1,0
33,'1',1,1,1,5.057,1.475,0.0,0.0,0.0,0.0,1,1,0
34,'1',1,1,1,27.22,7.364,0.0,0.0,0.0,0.0,1,1,0
35,'1',1,1,1,18.48,5.76,0.0,0.0,0.0,0.0,1,1,0
36,'1',1,1,1,10.37,4.112,0.0,0.0,0.0,0.0,1,1,0
38,'1',1,1,1,20.993,1.41,0.0,0.0,0.0,0.0,1,1,0
39,'1',1,1,1,10.74,2.315,0.0,0.0,0.0,0.0,1,1,0
41,'1',1,1,1,13.832,4.803,0.0,0.0,0.0,0.0,1,1,0
42,'1',1,1,1,9.611,3.368,0.0,0.0,0.0,0.0,1,1,0
44,'1',1,1,1,4.272,1.303,0.0,0.0,0.0,0.0,1,1,0
45,'1',1,1,1,11.119,3.248,0.0,0.0,0.0,0.0,1,1,0
46,'1',1,1,1,8.28,1.56,0.0,0.0,0.0,0.0,1,1,0
48,'1',1,1,1,20.7,6.06,0.0,0.0,0.0,0.0,1,1,0
50,'1',1,1,1,11.65,4.367,0.0,0.0,0.0,0.0,1,1,0
51,'1',1,1,1,6.9,1.86,0.0,0.0,0.0,0.0,1,1,0
53,'1',1,1,1,28.653,3.219,0.0,0.0,0.0,0.0,1,1,0
54,'1',1,1,1,11.229,4.852,0.0,0.0,0.0,0.0,1,1,0
56,'1',1,1,1,12.82,2.173,0.0,0.0,0.0,0.0,1,1,0
57,'1',1,1,1,26.819,5.707,0.0,0.0,0.0,0.0,1,1,0
58,'1',1,1,1,34.017,4.566,0.0,0.0,0.0,0.0,1,1,0
60,'1',1,1,1,20.043,3.333,0.0,0.0,0.0,0.0,1,1,0
61,'1',1,1,1,33.49,9.263,0.0,0.0,0.0,0.0,1,1,0
62,'1',1,1,1,23.58,2.328,0.0,0.0,0.0,0.0,1,1,0
64,'1',1,1,1,58.62,11.304,0.0,0.0,0.0,0.0,1,1,0
66,'1',1,1,1,56.687,11.92,0.0,0.0,0.0,0.0,1,1,0
67,'1',1,1,1,17.792,11.535,0.0,0.0,0.0,0.0,1,1,0
68,'1',1,1,1,30.452,3.427,0.0,0.0,0.0,0.0,1,1,0
69,'1',1,1,1,10.896,4.678,0.0,0.0,0.0,0.0,1,1,0
70,'1',1,1,1,12.7,4.333,0.0,0.0,0.0,0.0,1,1,0
72,'1',1,1,1,17.82,6.819,0.0,0.0,0.0,0.0,1,1,0
73,'1',1,1,1,14.275,2.939,0.0,0.0,0.0,0.0,1,1,0
74,'1',1,1,1,10.68,1.152,0.0,0.0,0.0,0.0,1,1,0
75,'1',1,1,1,7.21,1.931,0.0,0.0,0.0,0.0,1,1,0
76,'1',1,1,1,7.21,2.807,0.0,0.0,0.0,0.0,1,1,0
76,'2',1,1,1,4.466,1.672,0.0,0.0,0.0,0.0,1,1,0
77,'1',1,1,1,41.634,7.048,0.0,0.0,0.0,0.0,1,1,0
78,'1',1,1,1,15.553,5.072,0.0,0.0,0.0,0.0,1,1,0
79,'1',1,1,1,27.61,22.042,0.0,0.0,0.0,0.0,1,1,0
80,'1',1,1,1,22.665,10.018,0.0,0.0,0.0,0.0,1,1,0
81,'1',1,1,1,22.27,9.833,0.0,0.0,0.0,0.0,1,1,0
81,'2',1,1,1,2.618,1.036,0.0,0.0,0.0,0.0,1,1,0
82,'1',1,1,1,23.133,14.658,0.0,0.0,0.0,0.0,1,1,0
87,'1',1,1,1,19.379,9.601,0.0,0.0,0.0,0.0,1,1,0
88,'1',1,1,1,12.396,3.974,0.0,0.0,0.0,0.0,1,1,0
90,'1',1,1,1,11.783,1.67,0.0,0.0,0.0,0.0,1,1,0
91,'1',1,1,1,25.83,5.85,0.0,0.0,0.0,0.0,1,1,0
91,'2',1,1,1,20.66,5.279,0.0,0.0,0.0,0.0,1,1,0
93,'1',1,1,1,42.368,9.072,0.0,0.0,0.0,0.0,1,1,0
94,'1',1,1,1,25.41,6.718,0.0,0.0,0.0,0.0,1,1,0
95,'1',1,1,1,30.7,8.485,0.0,0.0,0.0,0.0,1,1,0
96,'1',1,1,1,30.7,10.117,0.0,0.0,0.0,0.0,1,1,0
101,'1',1,1,1,30.7,4.945,0.0,0.0,0.0,0.0,1,1,0
102,'1',1,1,1,13.41,3.555,0.0,0.0,0.0,0.0,1,1,0
104,'1',1,1,1,9.239,6.367,0.0,0.0,0.0,0.0,1,1,0
104,'2',1,1,1,9.323,2.278,0.0,0.0,0.0,0.0,1,1,0
105,'1',1,1,1,9.226,0.604,0.0,0.0,0.0,0.0,1,1,0
107,'1',1,1,1,10.33,2.339,0.0,0.0,0.0,0.0,1,1,0
107,'2',1,1,1,1.68,0.84,0.0,0.0,0.0,0.0,1,1,0
108,'1',1,1,1,5.997,1.332,0.0,0.0,0.0,0.0,1,1,0
108,'2',1,1,1,4.961,0.665,0.0,0.0,0.0,0.0,1,1,0
109,'1',1,1,1,11.17,3.743,0.0,0.0,0.0,0.0,1,1,0
110,'1',1,1,1,10.147,0.77,0.0,0.0,0.0,0.0,1,1,0
111,'1',1,1,1,6.769,1.142,0.0,0.0,0.0,0.0,1,1,0
112,'1',1,1,1,11.66,0.93,0.0,0.0,0.0,0.0,1,1,0
112,'2',1,1,1,14.804,3.41,0.0,0.0,0.0,0.0,1,1,0
113,'1',1,1,1,14.523,3.03,0.0,0.0,0.0,0.0,1,1,0
114,'1',1,1,1,14.132,5.035,0.0,0.0,0.0,0.0,1,1,0
114,'2',1,1,1,1.061,0.064,0.0,0.0,0.0,0.0,1,1,0
116,'1',1,1,1,4.608,0.173,0.0,0.0,0.0,0.0,1,1,0
117,'1',1,1,1,5.62,0.636,0.0,0.0,0.0,0.0,1,1,0
118,'1',1,1,1,15.311,5.508,0.0,0.0,0.0,0.0,1,1,0
119,'1',1,1,1,11.714,4.368,0.0,0.0,0.0,0.0,1,1,0
120,'1',1,1,1,14.574,3.553,0.0,0.0,0.0,0.0,1,1,0
121,'1',1,1,1,17.359,7.358,0.0,0.0,0.0,0.0,1,1,0
124,'1',1,1,1,13.54,8.876,0.0,0.0,0.0,0.0,1,1,0
125,'1',1,1,1,24.97,8.435,0.0,0.0,0.0,0.0,1,1,0
126,'1',1,1,1,12.12,6.912,0.0,0.0,0.0,0.0,1,1,0
127,'1',1,1,1,9.0,3.135,0.0,0.0,0.0,0.0,1,1,0
127,'2',1,1,1,1.497,0.998,0.0,0.0,0.0,0.0,1,1,0
129,'1',1,1,1,10.28,1.291,0.0,0.0,0.0,0.0,1,1,0
130,'1',1,1,1,15.245,1.579,0.0,0.0,0.0,0.0,1,1,0
131,'1',1,1,1,21.546,4.872,0.0,0.0,0.0,0.0,1,1,0
132,'1',1,1,1,12.62,2.879,0.0,0.0,0.0,0.0,1,1,0
133,'1',1,1,1,12.038,2.758,0.0,0.0,0.0,0.0,1,1,0
136,'1',1,1,1,59.32,1.845,0.0,0.0,0.0,0.0,1,1,0
137,'1',1,1,1,23.446,0.874,0.0,0.0,0.0,0.0,1,1,0
138,'1',1,1,1,11.621,2.161,0.0,0.0,0.0,0.0,1,1,0
139,'1',1,1,1,15.68,7.666,0.0,0.0,0.0,0.0,1,1,0
140,'1',1,1,1,16.462,4.626,0.0,0.0,0.0,0.0,1,1,0
143,'1',1,1,1,78.023,2.324,0.0,0.0,0.0,0.0,1,1,0
146,'1',1,1,1,24.17,2.762,0.0,0.0,0.0,0.0,1,1,0
147,'1',1,1,1,25.607,3.583,0.0,0.0,0.0,0.0,1,1,0
148,'1',1,1,1,30.2,13.157,0.0,0.0,0.0,0.0,1,1,0
148,'2',1,1,1,8.32,0.36,0.0,0.0,0.0,0.0,1,1,0
150,'1',1,1,1,44.278,14.137,0.0,0.0,0.0,0.0,1,1,0
151,'1',1,1,1,23.841,1.812,0.0,0.0,0.0,0.0,1,1,0
151,'2',1,1,1,1.641,0.413,0.0,0.0,0.0,0.0,1,1,0
152,'1',1,1,1,21.637,3.992,0.0,0.0,0.0,0.0,1,1,0
154,'1',1,1,1,16.88,4.139,0.0,0.0,0.0,0.0,1,1,0
154,'2',1,1,1,16.22,4.331,0.0,0.0,0.0,0.0,1,1,0
156,'1',1,1,1,28.84,4.231,0.0,0.0,0.0,0.0,1,1,0
157,'1',1,1,1,35.77,7.116,0.0,0.0,0.0,0.0,1,1,0
158,'1',1,1,1,47.8,10.429,0.0,0.0,0.0,0.0,1,1,0
159,'1',1,1,1,36.965,2.193,0.0,0.0,0.0,0.0,1,1,0
160,'1',1,1,1,28.546,0.415,0.0,0.0,0.0,0.0,1,1,0
161,'1',1,1,1,40.79,16.921,0.0,0.0,0.0,0.0,1,1,0
163,'1',1,1,1,16.139,4.751,0.0,0.0,0.0,0.0,1,1,0
164,'1',1,1,1,16.551,1.07,0.0,0.0,0.0,0.0,1,1,0
167,'1',1,1,1,23.05,2.364,0.0,0.0,0.0,0.0,1,1,0
169,'1',1,1,1,23.925,9.318,0.0,0.0,0.0,0.0,1,1,0
171,'1',1,1,1,14.606,4.584,0.0,0.0,0.0,0.0,1,1,0
171,'2',1,1,1,2.71,0.228,0.0,0.0,0.0,0.0,1,1,0
172,'1',1,1,1,15.08,3.155,0.0,0.0,0.0,0.0,1,1,0
173,'1',1,1,1,7.594,0.473,0.0,0.0,0.0,0.0,1,1,0
176,'1',1,1,1,16.89,6.495,0.0,0.0,0.0,0.0,1,1,0
179,'1',1,1,1,12.9,2.244,0.0,0.0,0.0,0.0,1,1,0
180,'1',1,1,1,5.57,0.744,0.0,0.0,0.0,0.0,1,1,0
181,'1',1,1,1,13.38,3.135,0.0,0.0,0.0,0.0,1,1,0
182,'1',1,1,1,4.818,0.862,0.0,0.0,0.0,0.0,1,1,0
183,'1',1,1,1,14.043,4.736,0.0,0.0,0.0,0.0,1,1,0
184,'1',1,1,1,7.72,1.484,0.0,0.0,0.0,0.0,1,1,0
185,'1',1,1,1,21.23,6.193,0.0,0.0,0.0,0.0,1,1,0
187,'1',1,1,1,15.233,2.713,0.0,0.0,0.0,0.0,1,1,0
187,'2',1,1,1,9.657,0.988,0.0,0.0,0.0,0.0,1,1,0
189,'1',1,1,1,24.782,1.457,0.0,0.0,0.0,0.0,1,1,0
189,'2',1,1,1,18.39,1.605,0.0,0.0,0.0,0.0,1,1,0
190,'1',1,1,1,26.54,4.621,0.0,0.0,0.0,0.0,1,1,0
190,'2',1,1,1,10.372,2.619,0.0,0.0,0.0,0.0,1,1,0
191,'1',1,1,1,11.01,3.519,0.0,0.0,0.0,0.0,1,1,0
191,'2',1,1,1,11.01,2.166,0.0,0.0,0.0,0.0,1,1,0
192,'1',1,1,1,11.53,0.432,0.0,0.0,0.0,0.0,1,1,0
193,'1',1,1,1,11.53,5.699,0.0,0.0,0.0,0.0,1,1,0
194,'1',1,1,1,38.86,11.224,0.0,0.0,0.0,0.0,1,1,0
195,'1',1,1,1,27.544,4.461,0.0,0.0,0.0,0.0,1,1,0
197,'1',1,1,1,8.468,2.581,0.0,0.0,0.0,0.0,1,1,0
198,'1',1,1,1,15.753,5.697,0.0,0.0,0.0,0.0,1,1,0
199,'1',1,1,1,16.43,2.926,0.0,0.0,0.0,0.0,1,1,0
200,'1',1,1,1,15.46,4.73,0.0,0.0,0.0,0.0,1,1,0
200,'2',1,1,1,13.83,0.075,0.0,0.0,0.0,0.0,1,1,0
203,'1',1,1,1,20.278,9.299,0.0,0.0,0.0,0.0,1,1,0
203,'2',1,1,1,5.75,0.916,0.0,0.0,0.0,0.0,1,1,0
204,'1',1,1,1,15.926,4.878,0.0,0.0,0.0,0.0,1,1,0
205,'1',1,1,1,13.124,2.113,0.0,0.0,0.0,0.0,1,1,0
206,'1',1,1,1,25.023,4.132,0.0,0.0,0.0,0.0,1,1,0
207,'1',1,1,1,47.91,14.659,0.0,0.0,0.0,0.0,1,1,0
208,'1',1,1,1,14.6,2.611,0.0,0.0,0.0,0.0,1,1,0
210,'1',1,1,1,35.441,13.1,0.0,0.0,0.0,0.0,1,1,0
212,'1',1,1,1,53.279,0.946,0.0,0.0,0.0,0.0,1,1,0
213,'1',1,1,1,42.48,2.73,0.0,0.0,0.0,0.0,1,1,0
214,'1',1,1,1,4.6,0.889,0.0,0.0,0.0,0.0,1,1,0
214,'2',1,1,1,5.695,0.164,0.0,0.0,0.0,0.0,1,1,0
218,'1',1,1,1,28.716,3.396,0.0,0.0,0.0,0.0,1,1,0
219,'1',1,1,1,10.802,0.384,0.0,0.0,0.0,0.0,1,1,0
219,'2',1,1,1,4.765,0.654,0.0,0.0,0.0,0.0,1,1,0
220,'1',1,1,1,11.554,2.042,0.0,0.0,0.0,0.0,1,1,0
221,'1',1,1,1,23.124,8.771,0.0,0.0,0.0,0.0,1,1,0
222,'1',1,1,1,21.24,2.631,0.0,0.0,0.0,0.0,1,1,0
224,'1',1,1,1,21.24,2.536,0.0,0.0,0.0,0.0,1,1,0
226,'1',1,1,1,15.777,3.863,0.0,0.0,0.0,0.0,1,1,0
226,'2',1,1,1,10.302,7.637,0.0,0.0,0.0,0.0,1,1,0
228,'1',1,1,1,24.41,5.112,0.0,0.0,0.0,0.0,1,1,0
228,'2',1,1,1,21.24,5.812,0.0,0.0,0.0,0.0,1,1,0
229,'1',1,1,1,43.732,16.466,0.0,0.0,0.0,0.0,1,1,0
232,'1',1,1,1,67.034,43.402,0.0,0.0,0.0,0.0,1,1,0
236,'1',1,1,1,64.494,14.545,0.0,0.0,0.0,0.0,1,1,0
237,'1',1,1,1,15.193,5.06,0.0,0.0,0.0,0.0,1,1,0
238,'1',1,1,1,51.1,17.533,0.0,0.0,0.0,0.0,1,1,0
239,'1',1,1,1,16.371,3.747,0.0,0.0,0.0,0.0,1,1,0
240,'1',1,1,1,5.69,1.662,0.0,0.0,0.0,0.0,1,1,0
240,'2',1,1,1,1.919,0.161,0.0,0.0,0.0,0.0,1,1,0
241,'1',1,1,1,7.644,1.666,0.0,0.0,0.0,0.0,1,1,0
241,'2',1,1,1,7.839,1.708,0.0,0.0,0.0,0.0,1,1,0
242,'1',1,1,1,48.036,8.928,0.0,0.0,0.0,0.0,1,1,0
243,'1',1,1,1,31.426,11.314,0.0,0.0,0.0,0.0,1,1,0
244,'1',1,1,1,20.87,4.968,0.0,0.0,0.0,0.0,1,1,0
245,'1',1,1,1,17.994,5.292,0.0,0.0,0.0,0.0,1,1,0
246,'1',1,1,1,50.55,11.295,0.0,0.0,0.0,0.0,1,1,0
247,'1',1,1,1,8.92,3.984,0.0,0.0,0.0,0.0,1,1,0
...
0 / END OF LOAD DATA BEGIN FIXED SHUNT DATA
0 / END OF FIXED SHUNT DATA BEGIN GENERATOR DATA
476,'1',454.19,29.56,431.0,-258.6,1.05,473,1109.88,0.0,1.0,0.0,0.0,1.0,1,100.0,656.68,454.19,1,1.0,0,1.0,0,1.0,0,1.0,0,1.0
477,'1',230.89,29.56,431.0,-258.6,1.05,473,1109.88,0.0,1.0,0.0,0.0,1.0,1,100.0,656.68,230.89,1,1.0,0,1.0,0,1.0,0,1.0,0,1.0
481,'1',70.02,-13.307,94.84,-66.388,1.04,0,223.6,0.0,1.0,0.0,0.0,1.0,1,100.0,132.29,70.02,1,1.0,0,1.0,0,1.0,0,1.0,0,1.0
482,'1',30.21,94.84,94.84,-56.904,1.048,478,223.6,0.0,1.0,0.0,0.0,1.0,1,100.0,132.29,30.21,1,1.0,0,1.0,0,1.0,0,1.0,0,1.0
483,'1',60.25,94.84,94.84,-56.904,1.048,478,223.6,0.0,1.0,0.0,0.0,1.0,1,100.0,132.29,60.25,1,1.0,0,1.0,0,1.0,0,1.0,0,1.0
487,'1',126.503,98.75,98.75,-59.25,1.046,484,232.8,0.0,1.0,0.0,0.0,1.0,1,100.0,137.74,96.35,1,1.0,0,1.0,0,1.0,0,1.0,0,1.0
488,'1',126.503,98.75,98.75,-59.25,1.046,484,232.8,0.0,1.0,0.0,0.0,1.0,1,100.0,137.74,65.16,1,1.0,0,1.0,0,1.0,0,1.0,0,1.0
493,'1',153.193,41.395,119.58,-71.748,1.053,490,281.91,0.0,1.0,0.0,0.0,1.0,1,100.0,166.8,69.49,1,1.0,0,1.0,0,1.0,0,1.0,0,1.0
494,'1',153.193,41.395,119.58,-71.748,1.053,490,281.91,0.0,1.0,0.0,0.0,1.0,1,100.0,166.8,87.1,1,1.0,0,1.0,0,1.0,0,1.0,0,1.0
495,'1',153.193,41.395,119.58,-71.748,1.053,490,281.91,0.0,1.0,0.0,0.0,1.0,1,100.0,166.8,94.07,1,1.0,0,1.0,0,1.0,0,1.0,0,1.0
496,'1',153.193,41.395,119.58,-71.748,1.053,490,281.91,0.0,1.0,0.0,0.0,1.0,1,100.0,166.8,75.5,1,1.0,0,1.0,0,1.0,0,1.0,0,1.0
500,'1',141.216,-36.573,108.42,-75.894,1.04,0,255.6,0.0,1.0,0.0,0.0,1.0,1,100.0,151.23,41.0,1,1.0,0,1.0,0,1.0,0,1.0,0,1.0
501,'1',138.893,100.082,108.42,-65.052,1.046,497,255.6,0.0,1.0,0.0,0.0,1.0,1,100.0,151.23,32.83,1,1.0,0,1.0,0,1.0,0,1.0,0,1.0
502,'1',138.893,-47.292,108.42,-75.894,1.04,0,255.6,0.0,1.0,0.0,0.0,1.0,1,100.0,151.23,55.54,1,1.0,0,1.0,0,1.0,0,1.0,0,1.0
507,'1',176.97,91.425,138.14,-96.698,1.042,504,325.68,0.0,1.0,0.0,0.0,1.0,1,100.0,192.69,85.62,1,1.0,0,1.0,0,1.0,0,1.0,0,1.0
508,'1',101.858,91.425,138.14,-96.698,1.042,504,325.68,0.0,1.0,0.0,0.0,1.0,1,100.0,192.69,92.54,1,1.0,0,1.0,0,1.0,0,1.0,0,1.0
509,'1',216.476,-41.81,65.227,-65.227,1.04,0,18.0,0.0,1.0,0.0,0.0,1.0,1,100.0,217.424,0.0,1,1.0,0,1.0,0,1.0,0,1.0,0,1.0
510,'1',6.322,-4.653,106.888,-106.888,1.04,0,21.96,0.0,1.0,0.0,0.0,1.0,1,100.0,356.292,0.0,1,1.0,0,1.0,0,1.0,0,1.0,0,1.0
510,'2',127.791,-4.653,64.933,-64.933,1.04,0,21.96,0.0,1.0,0.0,0.0,1.0,1,100.0,216.443,0.0,1,1.0,0,1.0,0,1.0,0,1.0,0,1.0
510,'3',271.031,-4.653,81.656,-81.656,1.04,0,21.96,0.0,1.0,0.0,0.0,1.0,1,100.0,272.187,0.0,1,1.0,0,1.0,0,1.0,0,1.0,0,1.0
513,'1',19.67,6.584,6.584,-6.584,1.04,0,43.2,0.0,1.0,0.0,0.0,1.0,1,100.0,21.945,0.0,1,1.0,0,1.0,0,1.0,0,1.0,0,1.0
513,'2',17.368,5.893,5.893,-5.893,1.04,0,43.2,0.0,1.0,0.0,0.0,1.0,1,100.0,19.643,0.0,1,1.0,0,1.0,0,1.0,0,1.0,0,1.0
514,'1',10.505,3.834,3.834,-3.834,1.04,0,43.2,0.0,1.0,0.0,0.0,1.0,1,100.0,12.78,0.0,1,1.0,0,1.0,0,1.0,0,1.0,0,1.0
515,'1',2.626,0.959,0.959,-0.959,1.04,0,10.8,0.0,1.0,0.0,0.0,1.0,1,100.0,3.195,0.0,1,1.0,0,1.0,0,1.0,0,1.0,0,1.0
515,'2',2.626,0.959,0.959,-0.959,1.04,0,10.8,0.0,1.0,0.0,0.0,1.0,1,100.0,3.195,0.0,1,1.0,0,1.0,0,1.0,0,1.0,0,1.0
520,'1',134.475,-36.269,104.97,-73.479,1.04,0,247.48,0.0,1.0,0.0,0.0,1.0,1,100.0,146.42,75.93,1,1.0,0,1.0,0,1.0,0,1.0,0,1.0
521,'1',134.475,104.97,104.97,-73.479,1.046,517,247.48,0.0,1.0,0.0,0.0,1.0,1,100.0,146.42,99.39,1,1.0,0,1.0,0,1.0,0,1.0,0,1.0
522,'1',134.475,104.97,104.97,-73.479,1.046,517,247.48,0.0,1.0,0.0,0.0,1.0,1,100.0,146.42,71.07,1,1.0,0,1.0,0,1.0,0,1.0,0,1.0
523,'1',33.513,26.16,26.16,-18.312,1.04,0,61.68,0.0,1.0,0.0,0.0,1.0,1,100.0,36.49,20.44,1,1.0,0,1.0,0,1.0,0,1.0,0,1.0
523,'2',33.513,26.16,26.16,-18.312,1.04,0,61.68,0.0,1.0,0.0,0.0,1.0,1,100.0,36.49,5.59,1,1.0,0,1.0,0,1.0,0,1.0,0,1.0
523,'3',33.513,26.16,26.16,-18.312,1.04,0,61.68,0.0,1.0,0.0,0.0,1.0,1,100.0,36.49,15.43,1,1.0,0,1.0,0,1.0,0,1.0,0,1.0
523,'4',33.513,26.16,26.16,-18.312,1.04,0,61.68,0.0,1.0,0.0,0.0,1.0,1,100.0,36.49,13.1,1,1.0,0,1.0,0,1.0,0,1.0,0,1.0
523,'5',33.513,26.16,26.16,-18.312,1.04,0,61.68,0.0,1.0,0.0,0.0,1.0,1,100.0,36.49,21.71,1,1.0,0,1.0,0,1.0,0,1.0,0,1.0
523,'6',33.513,26.16,26.16,-18.312,1.04,0,61.68,0.0,1.0,0.0,0.0,1.0,1,100.0,36.49,10.5,1,1.0,0,1.0,0,1.0,0,1.0,0,1.0
527,'1',174.583,102.303,136.28,-95.396,1.05,524,321.28,0.0,1.0,0.0,0.0,1.0,1,100.0,190.09,41.46,1,1.0,0,1.0,0,1.0,0,1.0,0,1.0
528,'1',174.583,102.303,136.28,-95.396,1.05,524,321.28,0.0,1.0,0.0,0.0,1.0,1,100.0,190.09,77.16,1,1.0,0,1.0,0,1.0,0,1.0,0,1.0
529,'1',174.583,102.303,136.28,-95.396,1.05,524,321.28,0.0,1.0,0.0,0.0,1.0,1,100.0,190.09,95.47,1,1.0,0,1.0,0,1.0,0,1.0,0,1.0
531,'1',10.893,-5.95,8.5,-5.95,1.04,0,20.04,0.0,1.0,0.0,0.0,1.0,1,100.0,11.86,4.98,1,1.0,0,1.0,0,1.0,0,1.0,0,1.0
533,'1',10.893,-5.95,8.5,-5.95,1.04,0,20.04,0.0,1.0,0.0,0.0,1.0,1,100.0,11.86,8.28,1,1.0,0,1.0,0,1.0,0,1.0,0,1.0
533,'2',10.893,-5.95,8.5,-5.95,1.04,0,20.04,0.0,1.0,0.0,0.0,1.0,1,100.0,11.86,6.63,1,1.0,0,1.0,0,1.0,0,1.0,0,1.0
533,'3',14.346,-7.84,11.2,-7.84,1.04,0,26.4,0.0,1.0,0.0,0.0,1.0,1,100.0,15.62,7.83,1,1.0,0,1.0,0,1.0,0,1.0,0,1.0
536,'1',0.973,0.76,0.76,-0.532,1.04,535,100.0,0.0,1.0,0.0,0.0,1.0,1,100.0,1.06,0.16,1,1.0,0,1.0,0,1.0,0,1.0,0,1.0
536,'2',3.912,3.05,3.05,-2.135,1.04,535,100.0,0.0,1.0,0.0,0.0,1.0,1,100.0,4.26,2.82,1,1.0,0,1.0,0,1.0,0,1.0,0,1.0
537,'1',1.497,1.17,1.17,-0.819,1.04,0,2.76,0.0,1.0,0.0,0.0,1.0,1,100.0,1.63,0.75,1,1.0,0,1.0,0,1.0,0,1.0,0,1.0
537,'2',3.004,2.34,2.34,-1.638,1.04,0,5.52,0.0,1.0,0.0,0.0,1.0,1,100.0,3.27,1.21,1,1.0,0,1.0,0,1.0,0,1.0,0,1.0
537,'7',16.578,12.94,12.94,-9.058,1.04,0,30.5,0.0,1.0,0.0,0.0,1.0,1,100.0,18.05,4.65,1,1.0,0,1.0,0,1.0,0,1.0,0,1.0
538,'3',3.912,3.05,3.05,-2.135,1.04,537,100.0,0.0,1.0,0.0,0.0,1.0,1,100.0,4.26,1.79,1,1.0,0,1.0,0,1.0,0,1.0,0,1.0
538,'4',16.578,12.94,12.94,-9.058,1.04,537,100.0,0.0,1.0,0.0,0.0,1.0,1,100.0,18.05,3.9,1,1.0,0,1.0,0,1.0,0,1.0,0,1.0
538,'5',16.578,12.94,12.94,-9.058,1.04,537,100.0,0.0,1.0,0.0,0.0,1.0,1,100.0,18.05,11.14,1,1.0,0,1.0,0,1.0,0,1.0,0,1.0
538,'6',16.578,12.94,12.94,-9.058,1.04,537,100.0,0.0,1.0,0.0,0.0,1.0,1,100.0,18.05,4.53,1,1.0,0,1.0,0,1.0,0,1.0,0,1.0
538,'8',16.578,12.94,12.94,-9.058,1.04,537,100.0,0.0,1.0,0.0,0.0,1.0,1,100.0,18.05,4.12,1,1.0,0,1.0,0,1.0,0,1.0,0,1.0
538,'9',16.578,12.94,12.94,-9.058,1.04,537,100.0,0.0,1.0,0.0,0.0,1.0,1,100.0,18.05,3.18,1,1.0,0,1.0,0,1.0,0,1.0,0,1.0
542,'1',236.705,139.873,184.77,-129.339,1.034,540,435.6,0.0,1.0,0.0,0.0,1.0,1,100.0,257.73,81.68,1,1.0,0,1.0,0,1.0,0,1.0,0,1.0
543,'1',236.705,139.873,184.77,-129.339,1.034,540,435.6,0.0,1.0,0.0,0.0,1.0,1,100.0,257.73,155.03,1,1.0,0,1.0,0,1.0,0,1.0,0,1.0
544,'1',32.016,16.138,24.99,-17.493,1.04,0,58.92,0.0,1.0,0.0,0.0,1.0,1,100.0,34.86,20.93,1,1.0,0,1.0,0,1.0,0,1.0,0,1.0
544,'2',32.016,16.138,24.99,-17.493,1.04,0,58.92,0.0,1.0,0.0,0.0,1.0,1,100.0,34.86,20.35,1,1.0,0,1.0,0,1.0,0,1.0,0,1.0
548,'1',215.89,-20.152,276.52,-165.912,1.046,545,712.08,0.0,1.0,0.0,0.0,1.0,1,100.0,421.31,215.89,1,1.0,0,1.0,0,1.0,0,1.0,0,1.0
549,'1',265.82,-20.152,276.52,-165.912,1.046,545,712.08,0.0,1.0,0.0,0.0,1.0,1,100.0,421.31,265.82,1,1.0,0,1.0,0,1.0,0,1.0,0,1.0
554,'1',68.468,-36.722,53.44,-37.408,1.04,0,126.0,0.0,1.0,0.0,0.0,1.0,1,100.0,74.55,44.25,1,1.0,0,1.0,0,1.0,0,1.0,0,1.0
559,'1',123.53,89.393,211.33,-126.798,1.053,556,544.2,0.0,1.0,0.0,0.0,1.0,1,100.0,321.99,123.53,1,1.0,0,1.0,0,1.0,0,1.0,0,1.0
561,'1',6.099,2.226,2.226,-2.226,1.04,0,25.08,0.0,1.0,0.0,0.0,1.0,1,100.0,7.42,0.0,1,1.0,0,1.0,0,1.0,0,1.0,0,1.0
562,'2',9.581,3.271,3.271,-3.271,1.04,561,100.0,0.0,1.0,0.0,0.0,1.0,1,100.0,10.902,0.0,1,1.0,0,1.0,0,1.0,0,1.0,0,1.0
566,'1',227.74,131.606,308.26,-184.956,1.048,563,793.8,0.0,1.0,0.0,0.0,1.0,1,100.0,469.67,227.74,1,1.0,0,1.0,0,1.0,0,1.0,0,1.0
567,'1',11.402,3.838,3.838,-3.838,1.04,0,26.4,0.0,1.0,0.0,0.0,1.0,1,100.0,12.793,0.0,1,1.0,0,1.0,0,1.0,0,1.0,0,1.0
568,'1',10.584,3.592,3.592,-3.592,1.04,0,26.4,0.0,1.0,0.0,0.0,1.0,1,100.0,11.975,0.0,1,1.0,0,1.0,0,1.0,0,1.0,0,1.0
573,'1',112.599,87.89,87.89,-61.523,1.045,570,207.2,0.0,1.0,0.0,0.0,1.0,1,100.0,122.6,52.76,1,1.0,0,1.0,0,1.0,0,1.0,0,1.0
574,'1',112.599,-16.75,87.89,-61.523,1.04,0,207.2,0.0,1.0,0.0,0.0,1.0,1,100.0,122.6,39.78,1,1.0,0,1.0,0,1.0,0,1.0,0,1.0
575,'1',112.599,-19.507,87.89,-61.523,1.04,0,207.2,0.0,1.0,0.0,0.0,1.0,1,100.0,122.6,41.51,1,1.0,0,1.0,0,1.0,0,1.0,0,1.0
576,'1',112.599,-15.507,87.89,-61.523,1.04,0,207.2,0.0,1.0,0.0,0.0,1.0,1,100.0,122.6,46.2,1,1.0,0,1.0,0,1.0,0,1.0,0,1.0
577,'1',112.599,-18.712,87.89,-61.523,1.04,0,207.2,0.0,1.0,0.0,0.0,1.0,1,100.0,122.6,37.72,1,1.0,0,1.0,0,1.0,0,1.0,0,1.0
578,'1',112.599,-17.313,87.89,-61.523,1.04,0,207.2,0.0,1.0,0.0,0.0,1.0,1,100.0,122.6,38.43,1,1.0,0,1.0,0,1.0,0,1.0,0,1.0
579,'1',60.076,-17.279,82.15,-57.505,1.04,0,193.68,0.0,1.0,0.0,0.0,1.0,1,100.0,114.59,55.29,1,1.0,0,1.0,0,1.0,0,1.0,0,1.0
579,'2',77.68,-17.279,82.15,-57.505,1.04,0,193.68,0.0,1.0,0.0,0.0,1.0,1,100.0,114.59,77.68,1,1.0,0,1.0,0,1.0,0,1.0,0,1.0
579,'3',73.85,-17.279,82.15,-57.505,1.04,0,193.68,0.0,1.0,0.0,0.0,1.0,1,100.0,114.59,73.85,1,1.0,0,1.0,0,1.0,0,1.0,0,1.0
582,'1',45.849,-51.836,82.15,-57.505,1.04,579,193.68,0.0,1.0,0.0,0.0,1.0,1,100.0,114.59,35.4,1,1.0,0,1.0,0,1.0,0,1.0,0,1.0
583,'1',67.46,-0.278,82.15,-57.505,1.04,0,193.68,0.0,1.0,0.0,0.0,1.0,1,100.0,114.59,67.46,1,1.0,0,1.0,0,1.0,0,1.0,0,1.0
586,'1',33.577,26.21,26.21,-18.347,1.04,0,61.8,0.0,1.0,0.0,0.0,1.0,1,100.0,36.56,5.76,1,1.0,0,1.0,0,1.0,0,1.0,0,1.0
586,'2',33.577,26.21,26.21,-18.347,1.04,0,61.8,0.0,1.0,0.0,0.0,1.0,1,100.0,36.56,17.59,1,1.0,0,1.0,0,1.0,0,1.0,0,1.0
586,'3',33.577,26.21,26.21,-18.347,1.04,0,61.8,0.0,1.0,0.0,0.0,1.0,1,100.0,36.56,7.22,1,1.0,0,1.0,0,1.0,0,1.0,0,1.0
586,'4',33.577,26.21,26.21,-18.347,1.04,0,61.8,0.0,1.0,0.0,0.0,1.0,1,100.0,36.56,6.6,1,1.0,0,1.0,0,1.0,0,1.0,0,1.0
589,'1',96.91,11.242,100.95,-60.57,1.04,0,238.0,0.0,1.0,0.0,0.0,1.0,1,100.0,140.81,96.91,1,1.0,0,1.0,0,1.0,0,1.0,0,1.0
590,'1',33.6,14.476,100.95,-60.57,1.04,0,238.0,0.0,1.0,0.0,0.0,1.0,1,100.0,140.81,33.6,1,1.0,0,1.0,0,1.0,0,1.0,0,1.0
591,'1',76.51,8.876,100.95,-60.57,1.04,0,238.0,0.0,1.0,0.0,0.0,1.0,1,100.0,140.81,76.51,1,1.0,0,1.0,0,1.0,0,1.0,0,1.0
596,'1',80.639,-29.565,81.36,-56.952,1.04,0,209.52,0.0,1.0,0.0,0.0,1.0,1,100.0,123.97,79.68,1,1.0,0,1.0,0,1.0,0,1.0,0,1.0
597,'1',113.857,-34.889,81.36,-56.952,1.04,0,209.52,0.0,1.0,0.0,0.0,1.0,1,100.0,123.97,63.69,1,1.0,0,1.0,0,1.0,0,1.0,0,1.0
598,'1',0.976,0.319,0.319,-0.319,1.04,0,1.68,0.0,1.0,0.0,0.0,1.0,1,100.0,1.065,0.0,1,1.0,0,1.0,0,1.0,0,1.0,0,1.0
598,'2',17.199,5.728,5.728,-5.728,1.04,0,36.0,0.0,1.0,0.0,0.0,1.0,1,100.0,19.095,0.0,1,1.0,0,1.0,0,1.0,0,1.0,0,1.0
603,'1',499.88,330.772,469.73,-281.838,1.052,600,1209.6,0.0,1.0,0.0,0.0,1.0,1,100.0,715.68,499.88,1,1.0,0,1.0,0,1.0,0,1.0,0,1.0
607,'1',313.25,54.14,418.33,-250.998,1.054,604,1077.24,0.0,1.0,0.0,0.0,1.0,1,100.0,637.37,313.25,1,1.0,0,1.0,0,1.0,0,1.0,0,1.0
608,'1',414.13,54.14,418.33,-250.998,1.054,604,1077.24,0.0,1.0,0.0,0.0,1.0,1,100.0,637.37,414.13,1,1.0,0,1.0,0,1.0,0,1.0,0,1.0
612,'1',82.808,-0.083,27.686,-27.686,1.04,0,180.0,0.0,1.0,0.0,0.0,1.0,1,100.0,92.287,0.0,1,1.0,0,1.0,0,1.0,0,1.0,1,1.0
615,'1',196.6,-4.031,275.22,-165.132,1.04,614,708.72,0.0,1.0,0.0,0.0,1.0,1,100.0,419.33,196.6,1,1.0,0,1.0,0,1.0,0,1.0,0,1.0
617,'1',13.926,4.747,4.747,-4.747,1.04,0,36.0,0.0,1.0,0.0,0.0,1.0,1,100.0,15.822,0.0,1,1.0,0,1.0,0,1.0,0,1.0,0,1.0
617,'2',13.774,4.701,4.701,-4.701,1.04,0,36.0,0.0,1.0,0.0,0.0,1.0,1,100.0,15.67,0.0,1,1.0,0,1.0,0,1.0,0,1.0,0,1.0
0 / END OF GENERATOR DATA BEGIN BRANCH DATA
1,3,'1',0.00635,0.02695,0.00279,158.2,158.2,158.2,0.0,0.0,0.0,0.0,1,1,5.01,1,1.0,0,1.0,0,1.0,0,1.0
2,1,'1',0.01312,0.05468,0.00337,140.2,140.2,140.2,0.0,0.0,0.0,0.0,1,1,7.97,1,1.0,0,1.0,0,1.0,0,1.0
3,2,'1',0.00728,0.0389,0.00738,129.7,129.7,129.7,0.0,0.0,0.0,0.0,1,1,10.89,1,1.0,0,1.0,0,1.0,0,1.0
3,35,'1',0.01367,0.06535,0.01419,185.9,185.9,185.9,0.0,0.0,0.0,0.0,1,1,16.71,1,1.0,0,1.0,0,1.0,0,1.0
4,5,'1',0.0002,0.00108,0.0,345.0,345.0,345.0,0.0,0.0,0.0,0.0,1,1,0.0,1,1.0,0,1.0,0,1.0,0,1.0
4,11,'1',0.01617,0.07615,0.01015,157.3,157.3,157.3,0.0,0.0,0.0,0.0,1,1,14.52,1,1.0,0,1.0,0,1.0,0,1.0
4,14,'1',0.01126,0.07288,0.01627,169.8,169.8,169.8,0.0,0.0,0.0,0.0,1,1,19.02,1,1.0,0,1.0,0,1.0,0,1.0
6,7,'1',0.00995,0.03066,0.00204,154.9,154.9,154.9,0.0,0.0,0.0,0.0,1,1,5.22,1,1.0,0,1.0,0,1.0,0,1.0
6,23,'1',0.01595,0.06409,0.00674,147.6,147.6,147.6,0.0,0.0,0.0,0.0,1,1,11.2,1,1.0,0,1.0,0,1.0,0,1.0
7,9,'1',0.01027,0.05768,0.00205,168.0,168.0,168.0,0.0,0.0,0.0,0.0,1,1,8.2,1,1.0,0,1.0,0,1.0,0,1.0
8,571,'1',0.00384,0.03054,0.20291,549.3,549.3,549.3,0.0,0.0,0.0,0.0,1,1,40.94,1,1.0,0,1.0,0,1.0,0,1.0
10,1,'1',0.01276,0.0733,0.0096,163.6,163.6,163.6,0.0,0.0,0.0,0.0,1,1,15.25,1,1.0,0,1.0,0,1.0,0,1.0
10,11,'1',0.01727,0.06921,0.00586,175.5,175.5,175.5,0.0,0.0,0.0,0.0,1,1,14.27,1,1.0,0,1.0,0,1.0,0,1.0
11,14,'1',0.00558,0.02717,0.00209,178.6,178.6,178.6,0.0,0.0,0.0,0.0,1,1,4.92,1,1.0,0,1.0,0,1.0,0,1.0
12,570,'1',0.00264,0.02133,0.11905,664.2,664.2,664.2,0.0,0.0,0.0,0.0,1,1,28.06,1,1.0,0,1.0,0,1.0,0,1.0
13,8,'1',0.00336,0.03163,0.03708,488.3,488.3,488.3,0.0,0.0,0.0,0.0,1,1,19.41,1,1.0,0,1.0,0,1.0,0,1.0
13,12,'1',0.0001,0.001,0.0,890.3,890.3,890.3,0.0,0.0,0.0,0.0,1,1,0.0,1,1.0,0,1.0,0,1.0,0,1.0
13,20,'1',0.00665,0.05004,0.16528,627.8,627.8,627.8,0.0,0.0,0.0,0.0,1,1,51.78,1,1.0,0,1.0,0,1.0,0,1.0
16,15,'1',0.02141,0.09305,0.00531,145.8,145.8,145.8,0.0,0.0,0.0,0.0,1,1,12.33,1,1.0,0,1.0,0,1.0,0,1.0
17,18,'1',0.00027,0.00115,0.0,138.0,138.0,138.0,0.0,0.0,0.0,0.0,1,1,0.0,1,1.0,0,1.0,0,1.0,0,1.0
18,29,'1',0.01542,0.06443,0.01744,161.7,161.7,161.7,0.0,0.0,0.0,0.0,1,1,18.88,1,1.0,0,1.0,0,1.0,0,1.0
18,30,'1',0.02132,0.0706,0.00591,146.3,146.3,146.3,0.0,0.0,0.0,0.0,1,1,13.81,1,1.0,0,1.0,0,1.0,0,1.0
19,22,'1',0.00025,0.00113,0.0,1500.0,1500.0,1500.0,0.0,0.0,0.0,0.0,1,1,0.0,1,1.0,0,1.0,0,1.0,0,1.0
20,19,'1',0.0001,0.001,0.0,749.6,749.6,749.6,0.0,0.0,0.0,0.0,1,1,0.0,1,1.0,0,1.0,0,1.0,0,1.0
20,201,'1',0.00743,0.05266,0.19472,650.8,650.8,650.8,0.0,0.0,0.0,0.0,1,1,54.1,1,1.0,0,1.0,0,1.0,0,1.0
22,473,'1',0.00408,0.03423,0.29527,646.8,646.8,646.8,0.0,0.0,0.0,0.0,1,1,57.18,1,1.0,0,1.0,0,1.0,0,1.0
23,26,'1',0.01431,0.06351,0.00506,149.5,149.5,149.5,0.0,0.0,0.0,0.0,1,1,11.71,1,1.0,0,1.0,0,1.0,0,1.0
24,33,'1',0.01503,0.05067,0.0177,162.9,162.9,162.9,0.0,0.0,0.0,0.0,1,1,16.15,1,1.0,0,1.0,0,1.0,0,1.0
24,34,'1',0.01416,0.05672,0.01879,150.3,150.3,150.3,0.0,0.0,0.0,0.0,1,1,18.34,1,1.0,0,1.0,0,1.0,0,1.0
25,34,'1',0.01511,0.06952,0.00593,154.3,154.3,154.3,0.0,0.0,0.0,0.0,1,1,12.67,1,1.0,0,1.0,0,1.0,0,1.0
25,547,'1',0.01161,0.05619,0.00533,162.8,162.8,162.8,0.0,0.0,0.0,0.0,1,1,10.71,1,1.0,0,1.0,0,1.0,0,1.0
26,18,'1',0.02307,0.14347,0.00887,155.3,155.3,155.3,0.0,0.0,0.0,0.0,1,1,19.24,1,1.0,0,1.0,0,1.0,0,1.0
27,15,'1',0.02463,0.09023,0.01262,185.4,185.4,185.4,0.0,0.0,0.0,0.0,1,1,18.08,1,1.0,0,1.0,0,1.0,0,1.0
27,475,'1',0.01914,0.06432,0.0036,188.0,188.0,188.0,0.0,0.0,0.0,0.0,1,1,9.45,1,1.0,0,1.0,0,1.0,0,1.0
28,29,'1',0.00025,0.00103,0.0,345.0,345.0,345.0,0.0,0.0,0.0,0.0,1,1,0.0,1,1.0,0,1.0,0,1.0,0,1.0
29,21,'1',0.01451,0.06831,0.00811,167.8,167.8,167.8,0.0,0.0,0.0,0.0,1,1,12.81,1,1.0,0,1.0,0,1.0,0,1.0
30,31,'1',0.01235,0.05631,0.00785,142.1,142.1,142.1,0.0,0.0,0.0,0.0,1,1,11.25,1,1.0,0,1.0,0,1.0,0,1.0
31,204,'1',0.01844,0.10602,0.01713,141.2,141.2,141.2,0.0,0.0,0.0,0.0,1,1,22.85,1,1.0,0,1.0,0,1.0,0,1.0
32,15,'1',0.00947,0.04816,0.0039,208.5,208.5,208.5,0.0,0.0,0.0,0.0,1,1,9.75,1,1.0,0,1.0,0,1.0,0,1.0
34,468,'1',0.03008,0.13024,0.01634,162.0,162.0,162.0,0.0,0.0,0.0,0.0,1,1,25.29,1,1.0,0,1.0,0,1.0,0,1.0
36,32,'1',0.01342,0.0576,0.02249,199.7,199.7,199.7,0.0,0.0,0.0,0.0,1,1,19.76,1,1.0,0,1.0,0,1.0,0,1.0
36,35,'1',0.0132,0.05853,0.00786,191.3,191.3,191.3,0.0,0.0,0.0,0.0,1,1,11.54,1,1.0,0,1.0,0,1.0,0,1.0
37,122,'1',0.00406,0.04095,0.1376,538.7,538.7,538.7,0.0,0.0,0.0,0.0,1,1,41.51,1,1.0,0,1.0,0,1.0,0,1.0
39,140,'1',0.01632,0.07937,0.00821,138.4,138.4,138.4,0.0,0.0,0.0,0.0,1,1,13.88,1,1.0,0,1.0,0,1.0,0,1.0
40,41,'1',0.00029,0.00113,0.0,345.0,345.0,345.0,0.0,0.0,0.0,0.0,1,1,0.0,1,1.0,0,1.0,0,1.0,0,1.0
40,43,'1',0.00759,0.03916,0.00863,160.5,160.5,160.5,0.0,0.0,0.0,0.0,1,1,10.3,1,1.0,0,1.0,0,1.0,0,1.0
42,43,'1',0.00026,0.00103,0.0,138.0,138.0,138.0,0.0,0.0,0.0,0.0,1,1,0.0,1,1.0,0,1.0,0,1.0,0,1.0
45,40,'1',0.01551,0.05932,0.0125,166.9,166.9,166.9,0.0,0.0,0.0,0.0,1,1,14.58,1,1.0,0,1.0,0,1.0,0,1.0
46,38,'1',0.03387,0.15112,0.02066,153.0,153.0,153.0,0.0,0.0,0.0,0.0,1,1,29.13,1,1.0,0,1.0,0,1.0,0,1.0
46,48,'1',0.00601,0.02566,0.01633,146.0,146.0,146.0,0.0,0.0,0.0,0.0,1,1,13.21,1,1.0,0,1.0,0,1.0,0,1.0
47,37,'1',0.00723,0.05839,0.0884,485.1,485.1,485.1,0.0,0.0,0.0,0.0,1,1,39.97,1,1.0,0,1.0,0,1.0,0,1.0
48,45,'1',0.01959,0.08775,0.01378,172.8,172.8,172.8,0.0,0.0,0.0,0.0,1,1,19.08,1,1.0,0,1.0,0,1.0,0,1.0
48,49,'1',0.02146,0.11918,0.01618,141.0,141.0,141.0,0.0,0.0,0.0,0.0,1,1,24.75,1,1.0,0,1.0,0,1.0,0,1.0
49,50,'1',0.00027,0.00119,0.0,138.0,138.0,138.0,0.0,0.0,0.0,0.0,1,1,0.0,1,1.0,0,1.0,0,1.0,0,1.0
51,44,'1',0.02267,0.10894,0.01316,131.1,131.1,131.1,0.0,0.0,0.0,0.0,1,1,19.98,1,1.0,0,1.0,0,1.0,0,1.0
51,170,'1',0.02426,0.0917,0.00882,130.2,130.2,130.2,0.0,0.0,0.0,0.0,1,1,14.58,1,1.0,0,1.0,0,1.0,0,1.0
52,53,'1',0.00029,0.00109,0.0,345.0,345.0,345.0,0.0,0.0,0.0,0.0,1,1,0.0,1,1.0,0,1.0,0,1.0,0,1.0
52,55,'1',0.00629,0.02698,0.0042,131.9,131.9,131.9,0.0,0.0,0.0,0.0,1,1,7.28,1,1.0,0,1.0,0,1.0,0,1.0
52,110,'1',0.00679,0.03422,0.01324,159.2,159.2,159.2,0.0,0.0,0.0,0.0,1,1,11.84,1,1.0,0,1.0,0,1.0,0,1.0
54,55,'1',0.0098,0.0467,0.00332,142.9,142.9,142.9,0.0,0.0,0.0,0.0,1,1,9.0,1,1.0,0,1.0,0,1.0,0,1.0
55,56,'1',0.00028,0.00117,0.0,138.0,138.0,138.0,0.0,0.0,0.0,0.0,1,1,0.0,1,1.0,0,1.0,0,1.0,0,1.0
57,61,'1',0.00511,0.02077,0.00132,132.8,132.8,132.8,0.0,0.0,0.0,0.0,1,1,3.51,1,1.0,0,1.0,0,1.0,0,1.0
58,57,'1',0.00356,0.0171,0.00131,130.9,130.9,130.9,0.0,0.0,0.0,0.0,1,1,3.36,1,1.0,0,1.0,0,1.0,0,1.0
58,61,'1',0.00679,0.02648,0.00278,135.6,135.6,135.6,0.0,0.0,0.0,0.0,0,1,5.64,1,1.0,0,1.0,0,1.0,0,1.0
59,60,'1',0.00025,0.00112,0.0,138.0,138.0,138.0,0.0,0.0,0.0,0.0,1,1,0.0,1,1.0,0,1.0,0,1.0,0,1.0
59,85,'1',0.00798,0.0323,0.00501,159.9,159.9,159.9,0.0,0.0,0.0,0.0,1,1,7.89,1,1.0,0,1.0,0,1.0,0,1.0
62,64,'1',0.00811,0.03542,0.00462,183.2,183.2,183.2,0.0,0.0,0.0,0.0,1,1,6.52,1,1.0,0,1.0,0,1.0,0,1.0
62,67,'1',0.00468,0.015,0.0016,181.4,181.4,181.4,0.0,0.0,0.0,0.0,1,1,3.4,1,1.0,0,1.0,0,1.0,0,1.0
63,65,'1',0.00224,0.01997,0.01849,623.5,623.5,623.5,0.0,0.0,0.0,0.0,1,1,13.15,1,1.0,0,1.0,0,1.0,0,1.0
65,530,'1',0.00224,0.01667,0.012,627.6,627.6,627.6,0.0,0.0,0.0,0.0,1,1,9.52,1,1.0,0,1.0,0,1.0,0,1.0
66,61,'1',0.00458,0.02094,0.00227,172.6,172.6,172.6,0.0,0.0,0.0,0.0,1,1,3.8,1,1.0,0,1.0,0,1.0,0,1.0
67,66,'1',0.00674,0.02888,0.00148,187.8,187.8,187.8,0.0,0.0,0.0,0.0,1,1,4.26,1,1.0,0,1.0,0,1.0,0,1.0
68,73,'1',0.04686,0.19537,0.02223,191.8,191.8,191.8,0.0,0.0,0.0,0.0,1,1,35.21,1,1.0,0,1.0,0,1.0,0,1.0
68,471,'1',0.01262,0.0545,0.02169,177.0,177.0,177.0,0.0,0.0,0.0,0.0,1,1,19.02,1,1.0,0,1.0,0,1.0,0,1.0
68,472,'1',0.03847,0.19361,0.01836,155.9,155.9,155.9,0.0,0.0,0.0,0.0,1,1,32.49,1,1.0,0,1.0,0,1.0,0,1.0
70,69,'1',0.01291,0.05157,0.01061,156.2,156.2,156.2,0.0,0.0,0.0,0.0,1,1,12.89,1,1.0,0,1.0,0,1.0,0,1.0
71,84,'1',0.00429,0.03775,0.07263,484.9,484.9,484.9,0.0,0.0,0.0,0.0,1,1,27.38,1,1.0,0,1.0,0,1.0,0,1.0
72,69,'1',0.01072,0.03788,0.00373,160.4,160.4,160.4,0.0,0.0,0.0,0.0,1,1,7.78,1,1.0,0,1.0,0,1.0,0,1.0
74,110,'1',0.01262,0.05479,0.03614,197.9,197.9,197.9,0.0,0.0,0.0,0.0,1,1,24.29,1,1.0,0,1.0,0,1.0,0,1.0
74,330,'1',0.00716,0.02949,0.022,194.8,194.8,194.8,0.0,0.0,0.0,0.0,1,1,14.41,1,1.0,0,1.0,0,1.0,0,1.0
75,76,'1',0.00662,0.0249,0.00669,176.3,176.3,176.3,0.0,0.0,0.0,0.0,1,1,9.05,1,1.0,0,1.0,0,1.0,0,1.0
76,102,'1',0.02281,0.09822,0.01169,156.8,156.8,156.8,0.0,0.0,0.0,0.0,1,1,17.96,1,1.0,0,1.0,0,1.0,0,1.0
77,88,'1',0.00508,0.02199,0.00243,170.6,170.6,170.6,0.0,0.0,0.0,0.0,1,1,4.71,1,1.0,0,1.0,0,1.0,0,1.0
77,93,'1',0.00705,0.03549,0.00287,187.8,187.8,187.8,0.0,0.0,0.0,0.0,1,1,6.37,1,1.0,0,1.0,0,1.0,0,1.0
78,100,'1',0.01593,0.05231,0.00282,179.6,179.6,179.6,0.0,0.0,0.0,0.0,1,1,7.74,1,1.0,0,1.0,0,1.0,0,1.0
79,82,'1',0.00244,0.01243,0.00098,152.5,152.5,152.5,0.0,0.0,0.0,0.0,1,1,2.52,1,1.0,0,1.0,0,1.0,0,1.0
79,92,'1',0.00237,0.00812,0.0026,135.2,135.2,135.2,0.0,0.0,0.0,0.0,1,1,2.77,1,1.0,0,1.0,0,1.0,0,1.0
80,81,'1',0.00268,0.01263,0.00258,140.0,140.0,140.0,0.0,0.0,0.0,0.0,1,1,3.88,1,1.0,0,1.0,0,1.0,0,1.0
80,100,'1',0.00842,0.03095,0.0016,151.8,151.8,151.8,0.0,0.0,0.0,0.0,1,1,4.49,1,1.0,0,1.0,0,1.0,0,1.0
81,349,'1',0.02419,0.12919,0.01102,159.9,159.9,159.9,0.0,0.0,0.0,0.0,1,1,19.4,1,1.0,0,1.0,0,1.0,0,1.0
82,88,'1',0.0063,0.02539,0.00136,179.7,179.7,179.7,0.0,0.0,0.0,0.0,1,1,4.07,1,1.0,0,1.0,0,1.0,0,1.0
83,524,'1',0.00174,0.01353,0.08827,450.0,450.0,450.0,0.0,0.0,0.0,0.0,1,1,20.16,1,1.0,0,1.0,0,1.0,0,1.0
84,63,'1',0.00159,0.01303,0.05518,572.4,572.4,572.4,0.0,0.0,0.0,0.0,1,1,14.14,1,1.0,0,1.0,0,1.0,0,1.0
84,83,'1',0.0001,0.001,0.0,976.9,976.9,976.9,0.0,0.0,0.0,0.0,1,1,0.0,1,1.0,0,1.0,0,1.0,0,1.0
84,98,'1',0.00269,0.02403,0.03053,567.0,567.0,567.0,0.0,0.0,0.0,0.0,1,1,14.77,1,1.0,0,1.0,0,1.0,0,1.0
85,86,'1',0.0,0.001,0.0,138.0,138.0,138.0,0.0,0.0,0.0,0.0,1,1,0.0,1,1.0,0,1.0,0,1.0,0,1.0
86,59,'1',0.00798,0.0323,0.0,159.9,159.9,159.9,0.0,0.0,0.0,0.0,1,1,0.0,1,1.0,0,1.0,0,1.0,0,1.0
87,59,'1',0.01058,0.04542,0.00325,164.1,164.1,164.1,0.0,0.0,0.0,0.0,1,1,7.53,1,1.0,0,1.0,0,1.0,0,1.0
88,95,'1',0.00271,0.01301,0.02426,196.1,196.1,196.1,0.0,0.0,0.0,0.0,1,1,11.28,1,1.0,0,1.0,0,1.0,0,1.0
89,78,'1',0.00386,0.02052,0.00269,175.0,175.0,175.0,0.0,0.0,0.0,0.0,1,1,4.38,1,1.0,0,1.0,0,1.0,0,1.0
89,90,'1',0.00025,0.00117,0.0,345.0,345.0,345.0,0.0,0.0,0.0,0.0,1,1,0.0,1,1.0,0,1.0,0,1.0,0,1.0
89,92,'1',0.00615,0.02921,0.00197,166.3,166.3,166.3,0.0,0.0,0.0,0.0,1,1,5.2,1,1.0,0,1.0,0,1.0,0,1.0
91,92,'1',0.00028,0.00111,0.0,345.0,345.0,345.0,0.0,0.0,0.0,0.0,1,1,0.0,1,1.0,0,1.0,0,1.0,0,1.0
92,82,'1',0.00641,0.02942,0.00179,137.8,137.8,137.8,0.0,0.0,0.0,0.0,1,1,4.7,1,1.0,0,1.0,0,1.0,0,1.0
93,62,'1',0.00315,0.01468,0.00485,204.8,204.8,204.8,0.0,0.0,0.0,0.0,1,1,5.66,1,1.0,0,1.0,0,1.0,0,1.0
94,81,'1',0.00419,0.01847,0.00357,139.0,139.0,139.0,0.0,0.0,0.0,0.0,1,1,4.58,1,1.0,0,1.0,0,1.0,0,1.0
94,97,'1',0.00562,0.02693,0.00284,140.9,140.9,140.9,0.0,0.0,0.0,0.0,1,1,5.65,1,1.0,0,1.0,0,1.0,0,1.0
95,97,'1',0.00629,0.02576,0.00268,151.3,151.3,151.3,0.0,0.0,0.0,0.0,1,1,5.57,1,1.0,0,1.0,0,1.0,0,1.0
96,97,'1',0.00029,0.00102,0.0,138.0,138.0,138.0,0.0,0.0,0.0,0.0,1,1,0.0,1,1.0,0,1.0,0,1.0,0,1.0
97,75,'1',0.00878,0.04723,0.0039,172.9,172.9,172.9,0.0,0.0,0.0,0.0,1,1,7.88,1,1.0,0,1.0,0,1.0,0,1.0
98,99,'1',0.0,0.001,0.0,690.0,690.0,690.0,0.0,0.0,0.0,0.0,1,1,0.0,1,1.0,0,1.0,0,1.0,0,1.0
98,101,'1',0.00021,0.00107,0.0,368.0,368.0,368.0,0.0,0.0,0.0,0.0,1,1,0.0,1,1.0,0,1.0,0,1.0,0,1.0
100,95,'1',0.00302,0.01382,0.00118,184.5,184.5,184.5,0.0,0.0,0.0,0.0,1,1,2.71,1,1.0,0,1.0,0,1.0,0,1.0
103,98,'1',0.00297,0.03001,0.11778,532.9,532.9,532.9,0.0,0.0,0.0,0.0,1,1,32.53,1,1.0,0,1.0,0,1.0,0,1.0
103,512,'1',0.00416,0.03757,0.08796,587.2,587.2,587.2,0.0,0.0,0.0,0.0,1,1,32.09,1,1.0,0,1.0,0,1.0,0,1.0
103,613,'1',0.00392,0.03887,0.04656,529.0,529.0,529.0,0.0,0.0,0.0,0.0,1,1,24.27,1,1.0,0,1.0,0,1.0,0,1.0
104,102,'1',0.00675,0.03017,0.00294,160.6,160.6,160.6,0.0,0.0,0.0,0.0,1,1,5.87,1,1.0,0,1.0,0,1.0,0,1.0
105,106,'1',0.00022,0.00116,0.0,138.0,138.0,138.0,0.0,0.0,0.0,0.0,1,1,0.0,1,1.0,0,1.0,0,1.0,0,1.0
106,58,'1',0.00702,0.04235,0.00478,173.5,173.5,173.5,0.0,0.0,0.0,0.0,1,1,8.85,1,1.0,0,1.0,0,1.0,0,1.0
107,534,'1',0.04439,0.15936,0.03758,161.7,161.7,161.7,0.0,0.0,0.0,0.0,1,1,41.27,1,1.0,0,1.0,0,1.0,0,1.0
108,463,'1',0.01303,0.05543,0.00595,150.4,150.4,150.4,0.0,0.0,0.0,0.0,1,1,12.25,1,1.0,0,1.0,0,1.0,0,1.0
109,107,'1',0.0071,0.03082,0.00727,128.3,128.3,128.3,0.0,0.0,0.0,0.0,1,1,8.86,1,1.0,0,1.0,0,1.0,0,1.0
109,117,'1',0.0133,0.06028,0.00504,150.4,150.4,150.4,0.0,0.0,0.0,0.0,1,1,10.65,1,1.0,0,1.0,0,1.0,0,1.0
109,249,'1',0.04327,0.21711,0.01501,142.2,142.2,142.2,0.0,0.0,0.0,0.0,1,1,31.13,1,1.0,0,1.0,0,1.0,0,1.0
110,111,'1',0.00881,0.03152,0.05498,204.0,204.0,204.0,0.0,0.0,0.0,0.0,1,1,22.35,1,1.0,0,1.0,0,1.0,0,1.0
111,261,'1',0.03907,0.19534,0.01572,135.9,135.9,135.9,0.0,0.0,0.0,0.0,1,1,30.39,1,1.0,0,1.0,0,1.0,0,1.0
112,73,'1',0.01206,0.0635,0.00756,187.3,187.3,187.3,0.0,0.0,0.0,0.0,1,1,12.0,1,1.0,0,1.0,0,1.0,0,1.0
112,115,'1',0.00297,0.01737,0.00311,172.2,172.2,172.2,0.0,0.0,0.0,0.0,1,1,4.69,1,1.0,0,1.0,0,1.0,0,1.0
113,115,'1',0.01381,0.04348,0.0026,170.2,170.2,170.2,0.0,0.0,0.0,0.0,1,1,6.41,1,1.0,0,1.0,0,1.0,0,1.0
113,373,'1',0.01154,0.06572,0.00223,164.9,164.9,164.9,0.0,0.0,0.0,0.0,1,1,8.51,1,1.0,0,1.0,0,1.0,0,1.0
114,115,'1',0.00024,0.00117,0.0,345.0,345.0,345.0,0.0,0.0,0.0,0.0,1,1,0.0,1,1.0,0,1.0,0,1.0,0,1.0
116,112,'1',0.02795,0.09056,0.00409,119.4,119.4,119.4,0.0,0.0,0.0,0.0,1,1,11.44,1,1.0,0,1.0,0,1.0,0,1.0
116,115,'1',0.01108,0.05171,0.00731,100.8,100.8,100.8,0.0,0.0,0.0,0.0,1,1,12.44,1,1.0,0,1.0,0,1.0,0,1.0
117,616,'1',0.00285,0.01589,0.00712,153.9,153.9,153.9,0.0,0.0,0.0,0.0,1,1,7.08,1,1.0,0,1.0,0,1.0,0,1.0
118,106,'1',0.01139,0.05676,0.0072,178.7,178.7,178.7,0.0,0.0,0.0,0.0,1,1,12.94,1,1.0,0,1.0,0,1.0,0,1.0
119,70,'1',0.02097,0.09364,0.02218,146.7,146.7,146.7,0.0,0.0,0.0,0.0,1,1,24.67,1,1.0,0,1.0,0,1.0,0,1.0
119,120,'1',0.00419,0.02113,0.00554,148.5,148.5,148.5,0.0,0.0,0.0,0.0,1,1,7.18,1,1.0,0,1.0,0,1.0,0,1.0
119,133,'1',0.01573,0.07063,0.00987,103.5,103.5,103.5,0.0,0.0,0.0,0.0,1,1,14.95,1,1.0,0,1.0,0,1.0,0,1.0
120,121,'1',0.01609,0.07601,0.00787,163.5,163.5,163.5,0.0,0.0,0.0,0.0,1,1,13.51,1,1.0,0,1.0,0,1.0,0,1.0
120,133,'1',0.01978,0.09754,0.01419,121.5,121.5,121.5,0.0,0.0,0.0,0.0,1,1,19.18,1,1.0,0,1.0,0,1.0,0,1.0
121,154,'1',0.01452,0.05895,0.01038,169.9,169.9,169.9,0.0,0.0,0.0,0.0,1,1,13.44,1,1.0,0,1.0,0,1.0,0,1.0
122,124,'1',0.00027,0.00107,0.0,690.0,690.0,690.0,0.0,0.0,0.0,0.0,1,1,0.0,1,1.0,0,1.0,0,1.0,0,1.0
123,39,'1',0.01755,0.07489,0.01607,145.4,145.4,145.4,0.0,0.0,0.0,0.0,1,1,18.49,1,1.0,0,1.0,0,1.0,0,1.0
125,33,'1',0.08644,0.32874,0.02869,159.1,159.1,159.1,0.0,0.0,0.0,0.0,1,1,51.2,1,1.0,0,1.0,0,1.0,0,1.0
125,140,'1',0.01322,0.04697,0.01132,145.3,145.3,145.3,0.0,0.0,0.0,0.0,1,1,13.01,1,1.0,0,1.0,0,1.0,0,1.0
126,128,'1',0.05475,0.21697,0.03636,156.0,156.0,156.0,0.0,0.0,0.0,0.0,1,1,46.06,1,1.0,0,1.0,0,1.0,0,1.0
126,137,'1',0.01927,0.08931,0.00879,130.7,130.7,130.7,0.0,0.0,0.0,0.0,1,1,15.66,1,1.0,0,1.0,0,1.0,0,1.0
126,138,'1',0.03653,0.15094,0.02178,151.5,151.5,151.5,0.0,0.0,0.0,0.0,1,1,30.61,1,1.0,0,1.0,0,1.0,0,1.0
126,139,'1',0.03657,0.17579,0.02874,140.6,140.6,140.6,0.0,0.0,0.0,0.0,1,1,38.39,1,1.0,0,1.0,0,1.0,0,1.0
126,147,'1',0.01795,0.07646,0.01912,128.4,128.4,128.4,0.0,0.0,0.0,0.0,1,1,21.25,1,1.0,0,1.0,0,1.0,0,1.0
127,118,'1',0.007,0.02635,0.00515,173.7,173.7,173.7,0.0,0.0,0.0,0.0,1,1,7.64,1,1.0,0,1.0,0,1.0,0,1.0
127,131,'1',0.01735,0.08945,0.0177,165.3,165.3,165.3,0.0,0.0,0.0,0.0,1,1,22.27,1,1.0,0,1.0,0,1.0,0,1.0
128,118,'1',0.01773,0.04454,0.00829,149.5,149.5,149.5,0.0,0.0,0.0,0.0,1,1,11.53,1,1.0,0,1.0,0,1.0,0,1.0
128,129,'1',0.00028,0.00106,0.0,138.0,138.0,138.0,0.0,0.0,0.0,0.0,1,1,0.0,1,1.0,0,1.0,0,1.0,0,1.0
130,131,'1',0.01691,0.06574,0.00698,148.7,148.7,148.7,0.0,0.0,0.0,0.0,1,1,11.29,1,1.0,0,1.0,0,1.0,0,1.0
131,475,'1',0.0716,0.32698,0.01862,153.4,153.4,153.4,0.0,0.0,0.0,0.0,1,1,42.46,1,1.0,0,1.0,0,1.0,0,1.0
134,136,'1',0.00026,0.00112,0.0,690.0,690.0,690.0,0.0,0.0,0.0,0.0,1,1,0.0,1,1.0,0,1.0,0,1.0,0,1.0
135,137,'1',0.05863,0.22774,0.02594,136.8,136.8,136.8,0.0,0.0,0.0,0.0,1,1,40.94,1,1.0,0,1.0,0,1.0,0,1.0
135,145,'1',0.02729,0.1088,0.03872,179.1,179.1,179.1,0.0,0.0,0.0,0.0,1,1,33.9,1,1.0,0,1.0,0,1.0,0,1.0
137,151,'1',0.01734,0.06356,0.01785,125.5,125.5,125.5,0.0,0.0,0.0,0.0,1,1,18.97,1,1.0,0,1.0,0,1.0,0,1.0
138,561,'1',0.00494,0.02121,0.00177,158.9,158.9,158.9,0.0,0.0,0.0,0.0,1,1,4.38,1,1.0,0,1.0,0,1.0,0,1.0
139,561,'1',0.01495,0.06824,0.00475,146.7,146.7,146.7,0.0,0.0,0.0,0.0,1,1,10.27,1,1.0,0,1.0,0,1.0,0,1.0
141,144,'1',0.00027,0.00106,0.0,1000.0,1000.0,1000.0,0.0,0.0,0.0,0.0,1,1,0.0,1,1.0,0,1.0,0,1.0,0,1.0
142,141,'1',0.0001,0.001,0.0,782.8,782.8,782.8,0.0,0.0,0.0,0.0,1,1,0.0,1,1.0,0,1.0,0,1.0,0,1.0
142,153,'1',0.00142,0.01154,0.03236,609.3,609.3,609.3,0.0,0.0,0.0,0.0,1,1,11.79,1,1.0,0,1.0,0,1.0,0,1.0
143,151,'1',0.00479,0.01793,0.00235,169.0,169.0,169.0,0.0,0.0,0.0,0.0,1,1,4.34,1,1.0,0,1.0,0,1.0,0,1.0
144,600,'1',0.00096,0.00828,0.05577,530.1,530.1,530.1,0.0,0.0,0.0,0.0,1,1,12.2,1,1.0,0,1.0,0,1.0,0,1.0
145,146,'1',0.00022,0.0011,0.0,345.0,345.0,345.0,0.0,0.0,0.0,0.0,1,1,0.0,1,1.0,0,1.0,0,1.0,0,1.0
145,157,'1',0.01243,0.04954,0.00506,160.1,160.1,160.1,0.0,0.0,0.0,0.0,1,1,9.75,1,1.0,0,1.0,0,1.0,0,1.0
147,132,'1',0.00809,0.03748,0.00657,159.9,159.9,159.9,0.0,0.0,0.0,0.0,1,1,9.91,1,1.0,0,1.0,0,1.0,0,1.0
147,468,'1',0.02658,0.14365,0.01966,155.0,155.0,155.0,0.0,0.0,0.0,0.0,1,1,27.69,1,1.0,0,1.0,0,1.0,0,1.0
148,151,'1',0.0037,0.02019,0.00271,205.1,205.1,205.1,0.0,0.0,0.0,0.0,1,1,4.8,1,1.0,0,1.0,0,1.0,0,1.0
149,65,'1',0.00472,0.04493,0.08558,629.3,629.3,629.3,0.0,0.0,0.0,0.0,1,1,32.22,1,1.0,0,1.0,0,1.0,0,1.0
149,142,'1',0.00229,0.02196,0.01927,574.1,574.1,574.1,0.0,0.0,0.0,0.0,1,1,11.54,1,1.0,0,1.0,0,1.0,0,1.0
149,601,'1',0.00151,0.01543,0.03688,631.2,631.2,631.2,0.0,0.0,0.0,0.0,1,1,12.75,1,1.0,0,1.0,0,1.0,0,1.0
151,147,'1',0.00664,0.02439,0.0021,171.8,171.8,171.8,0.0,0.0,0.0,0.0,1,1,4.81,1,1.0,0,1.0,0,1.0,0,1.0
152,150,'1',0.00627,0.03057,0.00174,167.5,167.5,167.5,0.0,0.0,0.0,0.0,1,1,5.1,1,1.0,0,1.0,0,1.0,0,1.0
152,158,'1',0.00728,0.0316,0.00698,157.8,157.8,157.8,0.0,0.0,0.0,0.0,1,1,9.51,1,1.0,0,1.0,0,1.0,0,1.0
154,159,'1',0.00373,0.01636,0.00297,195.7,195.7,195.7,0.0,0.0,0.0,0.0,1,1,4.11,1,1.0,0,1.0,0,1.0,0,1.0
155,154,'1',0.00292,0.01533,0.00183,162.2,162.2,162.2,0.0,0.0,0.0,0.0,1,1,3.59,1,1.0,0,1.0,0,1.0,0,1.0
155,156,'1',0.00024,0.00108,0.0,138.0,138.0,138.0,0.0,0.0,0.0,0.0,1,1,0.0,1,1.0,0,1.0,0,1.0,0,1.0
155,157,'1',0.00467,0.02837,0.00326,150.6,150.6,150.6,0.0,0.0,0.0,0.0,1,1,5.54,1,1.0,0,1.0,0,1.0,0,1.0
158,127,'1',0.00631,0.03374,0.00724,174.5,174.5,174.5,0.0,0.0,0.0,0.0,1,1,10.72,1,1.0,0,1.0,0,1.0,0,1.0
158,150,'1',0.0044,0.02608,0.00301,172.2,172.2,172.2,0.0,0.0,0.0,0.0,1,1,5.9,1,1.0,0,1.0,0,1.0,0,1.0
159,161,'1',0.00443,0.02192,0.00371,169.3,169.3,169.3,0.0,0.0,0.0,0.0,1,1,5.29,1,1.0,0,1.0,0,1.0,0,1.0
159,162,'1',0.0135,0.05937,0.00288,139.9,139.9,139.9,0.0,0.0,0.0,0.0,1,1,8.58,1,1.0,0,1.0,0,1.0,0,1.0
160,148,'1',0.00531,0.02513,0.00263,196.0,196.0,196.0,0.0,0.0,0.0,0.0,1,1,4.7,1,1.0,0,1.0,0,1.0,0,1.0
160,161,'1',0.00372,0.01524,0.0023,179.6,179.6,179.6,0.0,0.0,0.0,0.0,1,1,4.67,1,1.0,0,1.0,0,1.0,0,1.0
161,162,'1',0.00732,0.03622,0.00247,125.2,125.2,125.2,0.0,0.0,0.0,0.0,1,1,5.62,1,1.0,0,1.0,0,1.0,0,1.0
162,163,'1',0.00022,0.00105,0.0,345.0,345.0,345.0,0.0,0.0,0.0,0.0,1,1,0.0,1,1.0,0,1.0,0,1.0,0,1.0
164,167,'1',0.00427,0.01559,0.00148,170.7,170.7,170.7,0.0,0.0,0.0,0.0,1,1,3.58,1,1.0,0,1.0,0,1.0,0,1.0
164,171,'1',0.01079,0.04997,0.00358,133.5,133.5,133.5,0.0,0.0,0.0,0.0,1,1,9.4,1,1.0,0,1.0,0,1.0,0,1.0
166,165,'1',0.0001,0.001,0.0,670.3,670.3,670.3,0.0,0.0,0.0,0.0,1,1,0.0,1,1.0,0,1.0,0,1.0,0,1.0
166,168,'1',0.00029,0.00111,0.0,690.0,690.0,690.0,0.0,0.0,0.0,0.0,1,1,0.0,1,1.0,0,1.0,0,1.0,0,1.0
168,613,'1',0.00619,0.05051,0.14414,516.4,516.4,516.4,0.0,0.0,0.0,0.0,1,1,47.47,1,1.0,0,1.0,0,1.0,0,1.0
169,170,'1',0.00027,0.00109,0.0,138.0,138.0,138.0,0.0,0.0,0.0,0.0,1,1,0.0,1,1.0,0,1.0,0,1.0,0,1.0
170,164,'1',0.0076,0.04174,0.0096,151.9,151.9,151.9,0.0,0.0,0.0,0.0,1,1,12.86,1,1.0,0,1.0,0,1.0,0,1.0
171,167,'1',0.01426,0.05872,0.00459,158.9,158.9,158.9,0.0,0.0,0.0,0.0,1,1,11.63,1,1.0,0,1.0,0,1.0,0,1.0
171,172,'1',0.0161,0.05981,0.01573,125.0,125.0,125.0,0.0,0.0,0.0,0.0,1,1,16.61,1,1.0,0,1.0,0,1.0,0,1.0
172,43,'1',0.03117,0.13925,0.01117,157.5,157.5,157.5,0.0,0.0,0.0,0.0,1,1,21.34,1,1.0,0,1.0,0,1.0,0,1.0
...
0 / END OF BRANCH DATA BEGIN TRANSFORMER DATA
9,8,0,'1',1,1,1,0.0,0.0,2,'            ',1,1,1.0,0,1.0,0,1.0,0,1.0,'            '
0.00183,0.06646,100.0
1.0,115.0,0.0,181.7,181.7,181.7,0,8,1.1,0.9,1.01,0.99,33,0,0.0,0.0,0.0
1.0,230.0
14,13,0,'1',1,1,1,0.0,0.0,2,'            ',1,1,1.0,0,1.0,0,1.0,0,1.0,'            '
0.0012,0.05438,100.0
1.0,115.0,0.0,244.1,244.1,244.1,0,13,1.1,0.9,1.01,0.99,33,0,0.0,0.0,0.0
1.0,230.0
21,20,0,'1',1,1,1,0.0,0.0,2,'            ',1,1,1.0,0,1.0,0,1.0,0,1.0,'            '
0.00195,0.08874,100.0
1.0,115.0,0.0,160.1,160.1,160.1,0,20,1.1,0.9,1.01,0.99,33,0,0.0,0.0,0.0
1.0,230.0
38,37,0,'1',1,1,1,0.0,0.0,2,'            ',1,1,1.0,0,1.0,0,1.0,0,1.0,'            '
0.00139,0.05436,100.0
1.0,115.0,0.0,145.6,145.6,145.6,0,37,1.1,0.9,1.01,0.99,33,0,0.0,0.0,0.0
1.0,230.0
48,47,0,'1',1,1,1,0.0,0.0,2,'            ',1,1,1.0,0,1.0,0,1.0,0,1.0,'            '
0.00097,0.03629,100.0
1.0,115.0,0.0,177.0,177.0,177.0,0,47,1.1,0.9,1.01,0.99,33,0,0.0,0.0,0.0
1.0,230.0
64,63,0,'1',1,1,1,0.0,0.0,2,'            ',1,1,1.0,0,1.0,0,1.0,0,1.0,'            '
0.00164,0.06974,100.0
1.0,115.0,0.0,244.6,244.6,244.6,0,63,1.1,0.9,1.01,0.99,33,0,0.0,0.0,0.0
1.0,230.0
66,65,0,'1',1,1,1,0.0,0.0,2,'            ',1,1,1.0,0,1.0,0,1.0,0,1.0,'            '
0.0012,0.05508,100.0
1.0,115.0,-6.0,271.1,271.1,271.1,-3,65,30.0,-30.0,101.0,99.0,31,29,0.0,0.0,0.0
1.0,230.0
72,71,0,'1',1,1,1,0.0,0.0,2,'            ',1,1,1.0,0,1.0,0,1.0,0,1.0,'            '
0.00097,0.04679,100.0
1.0,115.0,0.0,140.7,140.7,140.7,0,71,1.1,0.9,1.01,0.99,33,0,0.0,0.0,0.0
1.0,230.0
84,86,0,'1',1,1,1,0.0,0.0,2,'            ',1,1,1.0,0,1.0,0,1.0,0,1.0,'            '
0.00143,0.07416,100.0
1.0,230.0,0.0,235.4,235.4,235.4,0,0,1.5,0.51,1.5,0.51,159,0,0.0,0.0,0.0
1.0,115.0
85,84,0,'1',1,1,1,0.0,0.0,2,'            ',1,1,1.0,0,1.0,0,1.0,0,1.0,'            '
0.00143,0.07416,100.0
1.0,115.0,0.0,235.4,235.4,235.4,0,84,1.1,0.9,1.01,0.99,33,0,0.0,0.0,0.0
1.0,230.0
100,98,0,'1',1,1,1,0.0,0.0,2,'            ',1,1,1.0,0,1.0,0,1.0,0,1.0,'            '
0.00223,0.0832,100.0
1.0,115.0,0.0,263.8,263.8,263.8,0,98,1.1,0.9,1.01,0.99,33,0,0.0,0.0,0.0
1.0,230.0
104,103,0,'1',1,1,1,0.0,0.0,2,'            ',1,1,1.0,0,1.0,0,1.0,0,1.0,'            '
0.00119,0.05827,100.0
1.0,115.0,0.0,180.2,180.2,180.2,0,103,1.1,0.9,1.01,0.99,33,0,0.0,0.0,0.0
1.0,230.0
123,122,0,'1',1,1,1,0.0,0.0,2,'            ',1,1,1.0,0,1.0,0,1.0,0,1.0,'            '
0.0012,0.06691,100.0
1.0,115.0,0.0,112.2,112.2,112.2,0,122,1.1,0.9,1.01,0.99,33,0,0.0,0.0,0.0
1.0,230.0
135,134,0,'1',1,1,1,0.0,0.0,2,'            ',1,1,1.0,0,1.0,0,1.0,0,1.0,'            '
0.00143,0.07303,100.0
1.0,115.0,0.0,179.6,179.6,179.6,0,134,1.1,0.9,1.01,0.99,33,0,0.0,0.0,0.0
1.0,230.0
143,142,0,'1',1,1,1,0.0,0.0,2,'            ',1,1,1.0,0,1.0,0,1.0,0,1.0,'            '
0.00147,0.05981,100.0
1.0,115.0,0.0,216.5,216.5,216.5,0,142,1.1,0.9,1.01,0.99,33,0,0.0,0.0,0.0
1.0,230.0
150,149,0,'1',1,1,1,0.0,0.0,2,'            ',1,1,1.0,0,1.0,0,1.0,0,1.0,'            '
0.00098,0.04276,100.0
1.0,115.0,0.0,269.6,269.6,269.6,0,149,1.1,0.9,1.01,0.99,33,0,0.0,0.0,0.0
1.0,230.0
154,153,0,'1',1,1,1,0.0,0.0,2,'            ',1,1,1.0,0,1.0,0,1.0,0,1.0,'            '
0.00117,0.05409,100.0
1.0,115.0,0.0,277.3,277.3,277.3,0,153,1.1,0.9,1.01,0.99,33,0,0.0,0.0,0.0
1.0,230.0
154,153,0,'2',1,1,1,0.0,0.0,2,'            ',1,1,1.0,0,1.0,0,1.0,0,1.0,'            '
0.00117,0.05409,100.0
1.0,115.0,0.0,277.3,277.3,277.3,0,153,1.1,0.9,1.01,0.99,33,0,0.0,0.0,0.0
1.0,230.0
167,166,0,'1',1,1,1,0.0,0.0,2,'            ',1,1,1.0,0,1.0,0,1.0,0,1.0,'            '
0.00141,0.05505,100.0
1.0,115.0,0.0,224.3,224.3,224.3,0,166,1.1,0.9,1.01,0.99,33,0,0.0,0.0,0.0
1.0,230.0
187,186,0,'1',1,1,1,0.0,0.0,2,'            ',1,1,1.0,0,1.0,0,1.0,0,1.0,'            '
0.00068,0.03758,100.0
1.0,115.0,0.0,270.9,270.9,270.9,0,186,1.1,0.9,1.01,0.99,33,0,0.0,0.0,0.0
1.0,230.0
203,201,0,'1',1,1,1,0.0,0.0,2,'            ',1,1,1.0,0,1.0,0,1.0,0,1.0,'            '
0.00141,0.05973,100.0
1.0,115.0,0.0,156.4,156.4,156.4,0,201,1.1,0.9,1.01,0.99,33,0,0.0,0.0,0.0
1.0,230.0
210,209,0,'1',1,1,1,0.0,0.0,2,'            ',1,1,1.0,0,1.0,0,1.0,0,1.0,'            '
0.00136,0.06915,100.0
1.0,115.0,0.0,220.4,220.4,220.4,0,209,1.1,0.9,1.01,0.99,33,0,0.0,0.0,0.0
1.0,230.0
212,211,0,'1',1,1,1,0.0,0.0,2,'            ',1,1,1.0,0,1.0,0,1.0,0,1.0,'            '
0.0019,0.07828,100.0
1.0,115.0,0.0,208.6,208.6,208.6,0,211,1.1,0.9,1.01,0.99,33,0,0.0,0.0,0.0
1.0,230.0
217,216,0,'1',1,1,1,0.0,0.0,2,'            ',1,1,1.0,0,1.0,0,1.0,0,1.0,'            '
0.0007,0.03192,100.0
1.0,115.0,0.0,241.9,241.9,241.9,0,216,1.1,0.9,1.01,0.99,33,0,0.0,0.0,0.0
1.0,230.0
231,230,0,'1',1,1,1,0.0,0.0,2,'            ',1,1,1.0,0,1.0,0,1.0,0,1.0,'            '
0.00138,0.05366,100.0
1.0,115.0,0.0,230.5,230.5,230.5,0,230,1.1,0.9,1.01,0.99,33,0,0.0,0.0,0.0
1.0,230.0
235,234,0,'1',1,1,1,0.0,0.0,2,'            ',1,1,1.0,0,1.0,0,1.0,0,1.0,'            '
0.00141,0.06492,100.0
1.0,115.0,0.0,228.2,228.2,228.2,0,234,1.1,0.9,1.01,0.99,33,0,0.0,0.0,0.0
1.0,230.0
259,258,0,'1',1,1,1,0.0,0.0,2,'            ',1,1,1.0,0,1.0,0,1.0,0,1.0,'            '
0.00136,0.05904,100.0
1.0,115.0,0.0,202.7,202.7,202.7,0,258,1.1,0.9,1.01,0.99,33,0,0.0,0.0,0.0
1.0,230.0
...